*SPEF "ieee 1481-1999"
*DESIGN "state_machine"
*DATE "17:11:39 Wednesday September 17, 2025"
*VENDOR "The OpenROAD Project"
*PROGRAM "OpenROAD"
*VERSION "b16bda7e82721d10566ff7e2b68f1ff0be9f9e38"
*DESIGN_FLOW "NAME_SCOPE LOCAL" "PIN_CAP NONE"
*DIVIDER /
*DELIMITER :
*BUS_DELIMITER []
*T_UNIT 1 NS
*C_UNIT 1 PF
*R_UNIT 1 OHM
*L_UNIT 1 HENRY

*NAME_MAP
*3 clk
*4 clk_data
*5 comp_p
*6 data[0]
*7 data[1]
*8 data[2]
*9 data[3]
*10 data[4]
*11 data[5]
*12 en_comp
*13 en_offset_cal
*14 en_offset_cal_o
*15 en_vcm_sw_o
*16 en_vcm_sw_o_i
*17 offset_cal_cycle
*18 rst_z
*19 sample_o
*20 single_ended
*21 start
*22 vcm_dummy_o
*23 vcm_o[0]
*24 vcm_o[10]
*25 vcm_o[1]
*26 vcm_o[2]
*27 vcm_o[3]
*28 vcm_o[4]
*29 vcm_o[5]
*30 vcm_o[6]
*31 vcm_o[7]
*32 vcm_o[8]
*33 vcm_o[9]
*34 vcm_o_i[0]
*35 vcm_o_i[10]
*36 vcm_o_i[1]
*37 vcm_o_i[2]
*38 vcm_o_i[3]
*39 vcm_o_i[4]
*40 vcm_o_i[5]
*41 vcm_o_i[6]
*42 vcm_o_i[7]
*43 vcm_o_i[8]
*44 vcm_o_i[9]
*45 vin_n_sw_on
*46 vin_p_sw_on
*47 vref_z_n_o[0]
*48 vref_z_n_o[10]
*49 vref_z_n_o[1]
*50 vref_z_n_o[2]
*51 vref_z_n_o[3]
*52 vref_z_n_o[4]
*53 vref_z_n_o[5]
*54 vref_z_n_o[6]
*55 vref_z_n_o[7]
*56 vref_z_n_o[8]
*57 vref_z_n_o[9]
*58 vref_z_p_o[0]
*59 vref_z_p_o[10]
*60 vref_z_p_o[1]
*61 vref_z_p_o[2]
*62 vref_z_p_o[3]
*63 vref_z_p_o[4]
*64 vref_z_p_o[5]
*65 vref_z_p_o[6]
*66 vref_z_p_o[7]
*67 vref_z_p_o[8]
*68 vref_z_p_o[9]
*69 vss_n_o[0]
*70 vss_n_o[10]
*71 vss_n_o[1]
*72 vss_n_o[2]
*73 vss_n_o[3]
*74 vss_n_o[4]
*75 vss_n_o[5]
*76 vss_n_o[6]
*77 vss_n_o[7]
*78 vss_n_o[8]
*79 vss_n_o[9]
*80 vss_p_o[0]
*81 vss_p_o[10]
*82 vss_p_o[1]
*83 vss_p_o[2]
*84 vss_p_o[3]
*85 vss_p_o[4]
*86 vss_p_o[5]
*87 vss_p_o[6]
*88 vss_p_o[7]
*89 vss_p_o[8]
*90 vss_p_o[9]
*91 _000_
*92 _001_
*93 _002_
*94 _003_
*95 _004_
*96 _005_
*97 _006_
*98 _007_
*99 _008_
*100 _009_
*101 _010_
*102 _011_
*103 _012_
*104 _013_
*105 _014_
*106 _015_
*107 _016_
*108 _017_
*109 _018_
*110 _019_
*111 _020_
*112 _021_
*113 _022_
*114 _023_
*115 _024_
*116 _025_
*117 _026_
*118 _027_
*119 _028_
*120 _029_
*121 _030_
*122 _031_
*123 _032_
*124 _033_
*125 _034_
*126 _035_
*127 _036_
*128 _037_
*129 _038_
*130 _039_
*131 _040_
*132 _041_
*133 _042_
*134 _043_
*135 _044_
*136 _045_
*137 _046_
*138 _047_
*139 _048_
*140 _049_
*141 _050_
*142 _051_
*143 _052_
*144 _053_
*145 _054_
*146 _055_
*147 _056_
*148 _057_
*149 _058_
*150 _059_
*151 _060_
*152 _061_
*153 _062_
*154 _063_
*155 _064_
*156 _065_
*157 _066_
*158 _067_
*159 _068_
*160 _069_
*161 _070_
*162 _071_
*163 _072_
*164 _073_
*165 _074_
*166 _075_
*167 _076_
*168 _077_
*169 _078_
*170 _079_
*171 _080_
*172 _081_
*173 _082_
*174 _083_
*175 _084_
*176 _085_
*177 _086_
*178 _087_
*179 _088_
*180 _089_
*181 _090_
*182 _091_
*183 _092_
*184 _093_
*185 _094_
*186 _095_
*187 _096_
*188 _097_
*189 _098_
*190 _099_
*191 _100_
*192 _101_
*193 _102_
*194 _103_
*195 _104_
*196 _105_
*197 _106_
*198 _107_
*199 _108_
*200 _109_
*201 _110_
*202 _111_
*203 _112_
*204 _113_
*205 _114_
*206 _115_
*207 _116_
*208 _117_
*209 _118_
*210 _119_
*211 _120_
*212 _121_
*213 _122_
*214 _123_
*215 _124_
*216 _125_
*217 _126_
*218 _127_
*219 _128_
*220 _129_
*221 _130_
*222 _131_
*223 _132_
*224 _133_
*225 _134_
*226 _135_
*227 _136_
*228 _137_
*229 _138_
*230 _139_
*231 _140_
*232 _141_
*233 _142_
*234 _143_
*235 _144_
*236 _145_
*237 _146_
*238 _147_
*239 _148_
*240 _149_
*241 _150_
*242 _151_
*243 _152_
*244 _153_
*245 _154_
*246 _155_
*247 _156_
*248 _157_
*249 _158_
*250 _159_
*251 _160_
*252 _161_
*253 _162_
*254 _163_
*255 _164_
*256 _165_
*257 _166_
*258 _167_
*259 _168_
*260 _169_
*261 _170_
*262 _171_
*263 _172_
*264 _173_
*265 _174_
*266 _175_
*267 _176_
*268 _177_
*269 _178_
*270 _179_
*271 _180_
*272 _181_
*273 _182_
*274 _183_
*275 _184_
*276 _185_
*277 _186_
*278 _187_
*279 _188_
*280 _189_
*281 _190_
*282 _191_
*283 _192_
*284 _193_
*285 _194_
*286 _195_
*287 _196_
*288 _197_
*289 _198_
*290 _199_
*291 _200_
*292 _201_
*293 _202_
*294 _203_
*295 _204_
*296 _205_
*297 _206_
*298 _207_
*299 _208_
*300 _209_
*301 _210_
*302 _211_
*303 _212_
*304 _213_
*305 _214_
*306 _215_
*307 _216_
*308 _217_
*309 _218_
*310 _219_
*311 clknet_0_clk
*312 clknet_2_0__leaf_clk
*313 clknet_2_1__leaf_clk
*314 clknet_2_2__leaf_clk
*315 clknet_2_3__leaf_clk
*316 counter\[0\]
*317 counter\[10\]
*318 counter\[11\]
*319 counter\[1\]
*320 counter\[2\]
*321 counter\[3\]
*322 counter\[4\]
*323 counter\[5\]
*324 counter\[6\]
*325 counter\[7\]
*326 counter\[8\]
*327 counter\[9\]
*328 counter_sample
*329 net1
*330 net10
*331 net11
*332 net12
*333 net13
*334 net14
*335 net15
*336 net16
*337 net17
*338 net18
*339 net19
*340 net2
*341 net20
*342 net21
*343 net22
*344 net23
*345 net24
*346 net25
*347 net26
*348 net27
*349 net28
*350 net29
*351 net3
*352 net30
*353 net31
*354 net32
*355 net33
*356 net34
*357 net35
*358 net36
*359 net37
*360 net38
*361 net39
*362 net4
*363 net40
*364 net41
*365 net42
*366 net43
*367 net44
*368 net45
*369 net46
*370 net47
*371 net48
*372 net49
*373 net5
*374 net50
*375 net51
*376 net52
*377 net53
*378 net54
*379 net55
*380 net56
*381 net57
*382 net58
*383 net59
*384 net6
*385 net60
*386 net61
*387 net62
*388 net63
*389 net64
*390 net65
*391 net66
*392 net67
*393 net68
*394 net69
*395 net7
*396 net70
*397 net71
*398 net72
*399 net73
*400 net74
*401 net75
*402 net76
*403 net77
*404 net78
*405 net79
*406 net8
*407 net80
*408 net81
*409 net82
*410 net83
*411 net84
*412 net85
*413 net86
*414 net87
*415 net88
*416 net89
*417 net9
*418 net90
*419 net91
*420 result\[0\]
*421 result\[10\]
*422 result\[11\]
*423 result\[1\]
*424 result\[2\]
*425 result\[3\]
*426 result\[4\]
*427 result\[5\]
*428 result\[6\]
*429 result\[7\]
*430 result\[8\]
*431 result\[9\]
*432 single_ended_reg
*433 state\[0\]
*434 state\[1\]
*435 FILLER_0_0_110
*436 FILLER_0_0_134
*437 FILLER_0_0_138
*438 FILLER_0_0_140
*439 FILLER_0_0_169
*440 FILLER_0_10_107
*441 FILLER_0_10_149
*442 FILLER_0_10_37
*443 FILLER_0_10_51
*444 FILLER_0_10_53
*445 FILLER_0_10_73
*446 FILLER_0_10_96
*447 FILLER_0_11_113
*448 FILLER_0_11_31
*449 FILLER_0_11_46
*450 FILLER_0_11_48
*451 FILLER_0_11_72
*452 FILLER_0_11_74
*453 FILLER_0_11_97
*454 FILLER_0_12_144
*455 FILLER_0_12_16
*456 FILLER_0_12_174
*457 FILLER_0_12_56
*458 FILLER_0_12_73
*459 FILLER_0_13_139
*460 FILLER_0_13_2
*461 FILLER_0_13_69
*462 FILLER_0_14_102
*463 FILLER_0_14_104
*464 FILLER_0_14_125
*465 FILLER_0_14_16
*466 FILLER_0_14_18
*467 FILLER_0_14_51
*468 FILLER_0_15_107
*469 FILLER_0_15_133
*470 FILLER_0_15_142
*471 FILLER_0_15_175
*472 FILLER_0_15_31
*473 FILLER_0_15_33
*474 FILLER_0_15_48
*475 FILLER_0_15_61
*476 FILLER_0_15_63
*477 FILLER_0_15_68
*478 FILLER_0_15_91
*479 FILLER_0_16_104
*480 FILLER_0_16_107
*481 FILLER_0_16_109
*482 FILLER_0_16_132
*483 FILLER_0_16_140
*484 FILLER_0_16_173
*485 FILLER_0_16_21
*486 FILLER_0_16_27
*487 FILLER_0_16_29
*488 FILLER_0_16_37
*489 FILLER_0_16_81
*490 FILLER_0_17_105
*491 FILLER_0_17_107
*492 FILLER_0_17_67
*493 FILLER_0_17_69
*494 FILLER_0_17_72
*495 FILLER_0_17_78
*496 FILLER_0_18_107
*497 FILLER_0_18_2
*498 FILLER_0_18_34
*499 FILLER_0_18_45
*500 FILLER_0_18_58
*501 FILLER_0_18_93
*502 FILLER_0_19_106
*503 FILLER_0_19_108
*504 FILLER_0_19_156
*505 FILLER_0_19_24
*506 FILLER_0_19_68
*507 FILLER_0_19_72
*508 FILLER_0_1_101
*509 FILLER_0_1_103
*510 FILLER_0_1_148
*511 FILLER_0_1_72
*512 FILLER_0_1_74
*513 FILLER_0_20_107
*514 FILLER_0_20_148
*515 FILLER_0_20_172
*516 FILLER_0_20_174
*517 FILLER_0_20_22
*518 FILLER_0_20_26
*519 FILLER_0_20_28
*520 FILLER_0_20_37
*521 FILLER_0_20_53
*522 FILLER_0_21_100
*523 FILLER_0_21_102
*524 FILLER_0_21_129
*525 FILLER_0_21_2
*526 FILLER_0_21_24
*527 FILLER_0_21_63
*528 FILLER_0_21_81
*529 FILLER_0_21_83
*530 FILLER_0_22_122
*531 FILLER_0_22_143
*532 FILLER_0_22_145
*533 FILLER_0_22_30
*534 FILLER_0_22_45
*535 FILLER_0_22_55
*536 FILLER_0_22_59
*537 FILLER_0_22_98
*538 FILLER_0_23_134
*539 FILLER_0_23_138
*540 FILLER_0_23_142
*541 FILLER_0_23_182
*542 FILLER_0_23_184
*543 FILLER_0_23_89
*544 FILLER_0_24_101
*545 FILLER_0_24_107
*546 FILLER_0_24_111
*547 FILLER_0_24_16
*548 FILLER_0_24_161
*549 FILLER_0_24_167
*550 FILLER_0_24_20
*551 FILLER_0_24_93
*552 FILLER_0_25_131
*553 FILLER_0_25_139
*554 FILLER_0_25_142
*555 FILLER_0_25_158
*556 FILLER_0_25_162
*557 FILLER_0_25_66
*558 FILLER_0_25_72
*559 FILLER_0_26_101
*560 FILLER_0_26_104
*561 FILLER_0_26_115
*562 FILLER_0_26_129
*563 FILLER_0_26_133
*564 FILLER_0_26_135
*565 FILLER_0_26_138
*566 FILLER_0_26_146
*567 FILLER_0_26_150
*568 FILLER_0_26_152
*569 FILLER_0_26_165
*570 FILLER_0_26_169
*571 FILLER_0_26_172
*572 FILLER_0_26_176
*573 FILLER_0_26_67
*574 FILLER_0_26_80
*575 FILLER_0_26_84
*576 FILLER_0_26_86
*577 FILLER_0_26_97
*578 FILLER_0_2_141
*579 FILLER_0_2_143
*580 FILLER_0_3_142
*581 FILLER_0_3_144
*582 FILLER_0_4_107
*583 FILLER_0_4_118
*584 FILLER_0_4_46
*585 FILLER_0_5_156
*586 FILLER_0_5_59
*587 FILLER_0_5_61
*588 FILLER_0_5_72
*589 FILLER_0_6_107
*590 FILLER_0_6_158
*591 FILLER_0_6_160
*592 FILLER_0_6_25
*593 FILLER_0_6_37
*594 FILLER_0_7_142
*595 FILLER_0_8_117
*596 FILLER_0_8_144
*597 FILLER_0_8_146
*598 FILLER_0_8_16
*599 FILLER_0_9_155
*600 FILLER_0_9_2
*601 FILLER_0_9_30
*602 FILLER_0_9_32
*603 FILLER_0_9_39
*604 FILLER_0_9_92
*605 PHY_EDGE_ROW_0_Left_27
*606 PHY_EDGE_ROW_0_Right_0
*607 PHY_EDGE_ROW_10_Left_37
*608 PHY_EDGE_ROW_10_Right_10
*609 PHY_EDGE_ROW_11_Left_38
*610 PHY_EDGE_ROW_11_Right_11
*611 PHY_EDGE_ROW_12_Left_39
*612 PHY_EDGE_ROW_12_Right_12
*613 PHY_EDGE_ROW_13_Left_40
*614 PHY_EDGE_ROW_13_Right_13
*615 PHY_EDGE_ROW_14_Left_41
*616 PHY_EDGE_ROW_14_Right_14
*617 PHY_EDGE_ROW_15_Left_42
*618 PHY_EDGE_ROW_15_Right_15
*619 PHY_EDGE_ROW_16_Left_43
*620 PHY_EDGE_ROW_16_Right_16
*621 PHY_EDGE_ROW_17_Left_44
*622 PHY_EDGE_ROW_17_Right_17
*623 PHY_EDGE_ROW_18_Left_45
*624 PHY_EDGE_ROW_18_Right_18
*625 PHY_EDGE_ROW_19_Left_46
*626 PHY_EDGE_ROW_19_Right_19
*627 PHY_EDGE_ROW_1_Left_28
*628 PHY_EDGE_ROW_1_Right_1
*629 PHY_EDGE_ROW_20_Left_47
*630 PHY_EDGE_ROW_20_Right_20
*631 PHY_EDGE_ROW_21_Left_48
*632 PHY_EDGE_ROW_21_Right_21
*633 PHY_EDGE_ROW_22_Left_49
*634 PHY_EDGE_ROW_22_Right_22
*635 PHY_EDGE_ROW_23_Left_50
*636 PHY_EDGE_ROW_23_Right_23
*637 PHY_EDGE_ROW_24_Left_51
*638 PHY_EDGE_ROW_24_Right_24
*639 PHY_EDGE_ROW_25_Left_52
*640 PHY_EDGE_ROW_25_Right_25
*641 PHY_EDGE_ROW_26_Left_53
*642 PHY_EDGE_ROW_26_Right_26
*643 PHY_EDGE_ROW_2_Left_29
*644 PHY_EDGE_ROW_2_Right_2
*645 PHY_EDGE_ROW_3_Left_30
*646 PHY_EDGE_ROW_3_Right_3
*647 PHY_EDGE_ROW_4_Left_31
*648 PHY_EDGE_ROW_4_Right_4
*649 PHY_EDGE_ROW_5_Left_32
*650 PHY_EDGE_ROW_5_Right_5
*651 PHY_EDGE_ROW_6_Left_33
*652 PHY_EDGE_ROW_6_Right_6
*653 PHY_EDGE_ROW_7_Left_34
*654 PHY_EDGE_ROW_7_Right_7
*655 PHY_EDGE_ROW_8_Left_35
*656 PHY_EDGE_ROW_8_Right_8
*657 PHY_EDGE_ROW_9_Left_36
*658 PHY_EDGE_ROW_9_Right_9
*659 TAP_TAPCELL_ROW_0_54
*660 TAP_TAPCELL_ROW_0_55
*661 TAP_TAPCELL_ROW_0_56
*662 TAP_TAPCELL_ROW_0_57
*663 TAP_TAPCELL_ROW_0_58
*664 TAP_TAPCELL_ROW_10_81
*665 TAP_TAPCELL_ROW_10_82
*666 TAP_TAPCELL_ROW_10_83
*667 TAP_TAPCELL_ROW_11_84
*668 TAP_TAPCELL_ROW_11_85
*669 TAP_TAPCELL_ROW_12_86
*670 TAP_TAPCELL_ROW_12_87
*671 TAP_TAPCELL_ROW_12_88
*672 TAP_TAPCELL_ROW_13_89
*673 TAP_TAPCELL_ROW_13_90
*674 TAP_TAPCELL_ROW_14_91
*675 TAP_TAPCELL_ROW_14_92
*676 TAP_TAPCELL_ROW_14_93
*677 TAP_TAPCELL_ROW_15_94
*678 TAP_TAPCELL_ROW_15_95
*679 TAP_TAPCELL_ROW_16_96
*680 TAP_TAPCELL_ROW_16_97
*681 TAP_TAPCELL_ROW_16_98
*682 TAP_TAPCELL_ROW_17_100
*683 TAP_TAPCELL_ROW_17_99
*684 TAP_TAPCELL_ROW_18_101
*685 TAP_TAPCELL_ROW_18_102
*686 TAP_TAPCELL_ROW_18_103
*687 TAP_TAPCELL_ROW_19_104
*688 TAP_TAPCELL_ROW_19_105
*689 TAP_TAPCELL_ROW_1_59
*690 TAP_TAPCELL_ROW_1_60
*691 TAP_TAPCELL_ROW_20_106
*692 TAP_TAPCELL_ROW_20_107
*693 TAP_TAPCELL_ROW_20_108
*694 TAP_TAPCELL_ROW_21_109
*695 TAP_TAPCELL_ROW_21_110
*696 TAP_TAPCELL_ROW_22_111
*697 TAP_TAPCELL_ROW_22_112
*698 TAP_TAPCELL_ROW_22_113
*699 TAP_TAPCELL_ROW_23_114
*700 TAP_TAPCELL_ROW_23_115
*701 TAP_TAPCELL_ROW_24_116
*702 TAP_TAPCELL_ROW_24_117
*703 TAP_TAPCELL_ROW_24_118
*704 TAP_TAPCELL_ROW_25_119
*705 TAP_TAPCELL_ROW_25_120
*706 TAP_TAPCELL_ROW_26_121
*707 TAP_TAPCELL_ROW_26_122
*708 TAP_TAPCELL_ROW_26_123
*709 TAP_TAPCELL_ROW_26_124
*710 TAP_TAPCELL_ROW_26_125
*711 TAP_TAPCELL_ROW_2_61
*712 TAP_TAPCELL_ROW_2_62
*713 TAP_TAPCELL_ROW_2_63
*714 TAP_TAPCELL_ROW_3_64
*715 TAP_TAPCELL_ROW_3_65
*716 TAP_TAPCELL_ROW_4_66
*717 TAP_TAPCELL_ROW_4_67
*718 TAP_TAPCELL_ROW_4_68
*719 TAP_TAPCELL_ROW_5_69
*720 TAP_TAPCELL_ROW_5_70
*721 TAP_TAPCELL_ROW_6_71
*722 TAP_TAPCELL_ROW_6_72
*723 TAP_TAPCELL_ROW_6_73
*724 TAP_TAPCELL_ROW_7_74
*725 TAP_TAPCELL_ROW_7_75
*726 TAP_TAPCELL_ROW_8_76
*727 TAP_TAPCELL_ROW_8_77
*728 TAP_TAPCELL_ROW_8_78
*729 TAP_TAPCELL_ROW_9_79
*730 TAP_TAPCELL_ROW_9_80
*731 _220_
*732 _221_
*733 _222_
*734 _223_
*735 _224_
*736 _225_
*737 _226_
*738 _227_
*739 _228_
*740 _229_
*741 _230_
*742 _231_
*743 _232_
*744 _233_
*745 _234_
*746 _235_
*747 _236_
*748 _237_
*749 _238_
*750 _239_
*751 _240_
*752 _241_
*753 _242_
*754 _243_
*755 _244_
*756 _245_
*757 _246_
*758 _247_
*759 _248_
*760 _249_
*761 _250_
*762 _251_
*763 _252_
*764 _253_
*765 _254_
*766 _255_
*767 _256_
*768 _257_
*769 _258_
*770 _259_
*771 _260_
*772 _261_
*773 _262_
*774 _263_
*775 _264_
*776 _265_
*777 _266_
*778 _267_
*779 _268_
*780 _269_
*781 _270_
*782 _271_
*783 _272_
*784 _273_
*785 _274_
*786 _275_
*787 _276_
*788 _277_
*789 _278_
*790 _279_
*791 _280_
*792 _281_
*793 _282_
*794 _283_
*795 _284_
*796 _285_
*797 _286_
*798 _287_
*799 _288_
*800 _289_
*801 _290_
*802 _291_
*803 _292_
*804 _293_
*805 _294_
*806 _295_
*807 _296_
*808 _297_
*809 _298_
*810 _299_
*811 _300_
*812 _301_
*813 _302_
*814 _303_
*815 _304_
*816 _305_
*817 _306_
*818 _307_
*819 _308_
*820 _309_
*821 _310_
*822 _311_
*823 _312_
*824 _313_
*825 _314_
*826 _315_
*827 _316_
*828 _317_
*829 _318_
*830 _319_
*831 _320_
*832 _321_
*833 _322_
*834 _323_
*835 _324_
*836 _325_
*837 _326_
*838 _327_
*839 _328_
*840 _329_
*841 _330_
*842 _331_
*843 _332_
*844 _333_
*845 _334_
*846 _335_
*847 _336_
*848 _337_
*849 _338_
*850 _339_
*851 _340_
*852 _341_
*853 _342_
*854 _343_
*855 _344_
*856 _345_
*857 _346_
*858 _347_
*859 _348_
*860 _349_
*861 _350_
*862 _351_
*863 _352_
*864 _353_
*865 _354_
*866 _355_
*867 _356_
*868 _357_
*869 _358_
*870 _359_
*871 _360_
*872 _361_
*873 _362_
*874 _363_
*875 _364_
*876 _365_
*877 _366_
*878 _367_
*879 _368_
*880 _369_
*881 _370_
*882 _371_
*883 _372_
*884 _373_
*885 _374_
*886 _375_
*887 _376_
*888 _377_
*889 _378_
*890 _379_
*891 _380_
*892 _381_
*893 _382_
*894 _383_
*895 _384_
*896 _385_
*897 _386_
*898 _387_
*899 _388_
*900 _389_
*901 _390_
*902 _391_
*903 _392_
*904 _393_
*905 _394_
*906 _395_
*907 _396_
*908 _397_
*909 _398_
*910 _399_
*911 _400_
*912 _401_
*913 _402_
*914 _403_
*915 _404_
*916 _405_
*917 _406_
*918 _407_
*919 _408_
*920 _409_
*921 _410_
*922 _411_
*923 _412_
*924 _413_
*925 _414_
*926 _415_
*927 _416_
*928 _417_
*929 _418_
*930 _419_
*931 _420_
*932 _421_
*933 _422_
*934 _423_
*935 _424_
*936 _425_
*937 _426_
*938 _427_
*939 _428_
*940 _429_
*941 _430_
*942 _431_
*943 _432_
*944 _433_
*945 _434_
*946 _435_
*947 _436_
*948 _437_
*949 _438_
*950 _439_
*951 _440_
*952 _441_
*953 _442_
*954 _443_
*955 _444_
*956 _445_
*957 _446_
*958 _447_
*959 _448_
*960 _449_
*961 _450_
*962 _451_
*963 _452_
*964 _453_
*965 _454_
*966 _455_
*967 _456_
*968 _457_
*969 _458_
*970 _459_
*971 _460_
*972 _461_
*973 _462_
*974 _463_
*975 _464_
*976 _465_
*977 _466_
*978 _467_
*979 _468_
*980 _469_
*981 _470_
*982 _471_
*983 _472_
*984 _473_
*985 _474_
*986 _475_
*987 _476_
*988 _477_
*989 _478_
*990 _479_
*991 _480_
*992 _481_
*993 _482_
*994 _483_
*995 _484_
*996 _485_
*997 _486_
*998 _487_
*999 _488_
*1000 _489_
*1001 _490_
*1002 _491_
*1003 _492_
*1004 _493_
*1005 _494_
*1006 _495_
*1007 _496_
*1008 _497_
*1009 _498_
*1010 _499_
*1011 _500_
*1012 _501_
*1013 _502_
*1014 _503_
*1015 _504_
*1016 _505_
*1017 _506_
*1018 _507_
*1019 _508_
*1020 _509_
*1021 _510_
*1022 _511_
*1023 _512_
*1024 _513_
*1025 _514_
*1026 _515_
*1027 _516_
*1028 _517_
*1029 _518_
*1030 _519_
*1031 _520_
*1032 _521_
*1033 _522_
*1034 _523_
*1035 _524_
*1036 _525_
*1037 _526_
*1038 _527_
*1039 _528_
*1040 _529_
*1041 _530_
*1042 _531_
*1043 _532_
*1044 _533_
*1045 _534_
*1046 _535_
*1047 clkbuf_0_clk
*1048 clkbuf_2_0__f_clk
*1049 clkbuf_2_1__f_clk
*1050 clkbuf_2_2__f_clk
*1051 clkbuf_2_3__f_clk
*1052 clkload0
*1053 clkload1
*1054 clkload2
*1055 fanout88
*1056 fanout89
*1057 fanout90
*1058 fanout91
*1059 input1
*1060 input10
*1061 input11
*1062 input12
*1063 input13
*1064 input14
*1065 input15
*1066 input16
*1067 input17
*1068 input18
*1069 input19
*1070 input2
*1071 input3
*1072 input4
*1073 input5
*1074 input6
*1075 input7
*1076 input8
*1077 input9
*1078 output20
*1079 output21
*1080 output22
*1081 output23
*1082 output24
*1083 output25
*1084 output26
*1085 output27
*1086 output28
*1087 output29
*1088 output30
*1089 output31
*1090 output32
*1091 output33
*1092 output34
*1093 output35
*1094 output36
*1095 output37
*1096 output38
*1097 output39
*1098 output40
*1099 output41
*1100 output42
*1101 output43
*1102 output44
*1103 output45
*1104 output46
*1105 output47
*1106 output48
*1107 output49
*1108 output50
*1109 output51
*1110 output52
*1111 output53
*1112 output54
*1113 output55
*1114 output56
*1115 output57
*1116 output58
*1117 output59
*1118 output60
*1119 output61
*1120 output62
*1121 output63
*1122 output64
*1123 output65
*1124 output66
*1125 output67
*1126 output68
*1127 output69
*1128 output70
*1129 output71
*1130 output72
*1131 output73
*1132 output74
*1133 output75
*1134 output76
*1135 output77
*1136 output78
*1137 output79
*1138 output80
*1139 output81
*1140 output82
*1141 output83
*1142 output84
*1143 output85
*1144 output86
*1145 output87

*PORTS
clk I
clk_data O
comp_p I
data[0] O
data[1] O
data[2] O
data[3] O
data[4] O
data[5] O
en_comp O
en_offset_cal I
en_offset_cal_o O
en_vcm_sw_o O
en_vcm_sw_o_i I
offset_cal_cycle O
rst_z I
sample_o O
single_ended I
start I
vcm_dummy_o O
vcm_o[0] O
vcm_o[10] O
vcm_o[1] O
vcm_o[2] O
vcm_o[3] O
vcm_o[4] O
vcm_o[5] O
vcm_o[6] O
vcm_o[7] O
vcm_o[8] O
vcm_o[9] O
vcm_o_i[0] I
vcm_o_i[10] I
vcm_o_i[1] I
vcm_o_i[2] I
vcm_o_i[3] I
vcm_o_i[4] I
vcm_o_i[5] I
vcm_o_i[6] I
vcm_o_i[7] I
vcm_o_i[8] I
vcm_o_i[9] I
vin_n_sw_on I
vin_p_sw_on I
vref_z_n_o[0] O
vref_z_n_o[10] O
vref_z_n_o[1] O
vref_z_n_o[2] O
vref_z_n_o[3] O
vref_z_n_o[4] O
vref_z_n_o[5] O
vref_z_n_o[6] O
vref_z_n_o[7] O
vref_z_n_o[8] O
vref_z_n_o[9] O
vref_z_p_o[0] O
vref_z_p_o[10] O
vref_z_p_o[1] O
vref_z_p_o[2] O
vref_z_p_o[3] O
vref_z_p_o[4] O
vref_z_p_o[5] O
vref_z_p_o[6] O
vref_z_p_o[7] O
vref_z_p_o[8] O
vref_z_p_o[9] O
vss_n_o[0] O
vss_n_o[10] O
vss_n_o[1] O
vss_n_o[2] O
vss_n_o[3] O
vss_n_o[4] O
vss_n_o[5] O
vss_n_o[6] O
vss_n_o[7] O
vss_n_o[8] O
vss_n_o[9] O
vss_p_o[0] O
vss_p_o[10] O
vss_p_o[1] O
vss_p_o[2] O
vss_p_o[3] O
vss_p_o[4] O
vss_p_o[5] O
vss_p_o[6] O
vss_p_o[7] O
vss_p_o[8] O
vss_p_o[9] O

*D_NET *3 0.0161206
*CONN
*P clk I
*I *1047:I I *D gf180mcu_fd_sc_mcu7t5v0__clkbuf_16
*CAP
1 clk 0.00255131
2 *1047:I 0
3 *3:21 0.00255131
4 *3:21 *791:A1 0.000727745
5 *3:21 *795:A1 0.000479318
6 *3:21 *838:I 0.000201043
7 *3:21 *841:A1 0.000370593
8 *3:21 *877:B 3.56075e-05
9 *3:21 *880:A1 0.00045324
10 *3:21 *884:I 0.000260006
11 *3:21 *930:A2 4.04798e-05
12 *3:21 *934:A1 6.11661e-05
13 *3:21 *939:A1 0.000819465
14 *3:21 *939:A2 0.00194908
15 *3:21 *940:S 2.14739e-05
16 *3:21 *966:A2 0.000103788
17 *3:21 *1007:A1 0
18 *3:21 *1123:I 0.00253032
19 *3:21 *136:23 1.19663e-05
20 *3:21 *195:108 7.92699e-05
21 *3:21 *195:114 4.5412e-05
22 *3:21 *196:103 0.000182208
23 *3:21 *196:109 0.000182219
24 *3:21 *220:67 0
25 *3:21 *231:14 0.000316249
26 *3:21 *244:10 1.97743e-05
27 *3:21 *250:6 6.91919e-05
28 *3:21 *327:65 0.000385441
29 *3:21 *327:78 6.91919e-05
30 *3:21 *376:16 0.000323361
31 *3:21 *380:22 0
32 *3:21 *431:30 0.00124446
33 *3:21 *432:31 3.58826e-05
*RES
1 clk *3:21 46.34 
2 *3:21 *1047:I 4.5 
*END

*D_NET *4 0.0076112
*CONN
*P clk_data O
*I *1078:Z O *D gf180mcu_fd_sc_mcu7t5v0__buf_3
*CAP
1 clk_data 0.00216126
2 *1078:Z 0.00216126
3 clk_data vref_z_p_o[10] 0
4 clk_data vref_z_p_o[6] 0
5 clk_data vref_z_p_o[7] 0.000673398
6 clk_data vref_z_p_o[8] 0
7 clk_data *117:12 0.000288199
8 clk_data *404:26 0.00232708
9 clk_data *424:16 0
*RES
1 *1078:Z clk_data 33 
*END

*D_NET *5 0.00871286
*CONN
*P comp_p I
*I *1059:I I *D gf180mcu_fd_sc_mcu7t5v0__buf_2
*CAP
1 comp_p 0.00191783
2 *1059:I 0.00191783
3 *1059:I en_comp 4.5163e-05
4 *1059:I vcm_o[0] 0.000344024
5 *1059:I vcm_o[1] 0.000745445
6 *1059:I vcm_o[3] 1.40331e-05
7 *1059:I vss_p_o[0] 0.00119981
8 *1059:I *901:I 0.000319457
9 *1059:I *1031:RN 3.26853e-05
10 *1059:I *1035:D 0.00169396
11 *1059:I *1061:I 0.000185316
12 *1059:I *1062:I 1.71003e-05
13 *1059:I *1095:I 0.000109725
14 *1059:I *223:16 0.000120533
15 *1059:I *329:14 1.36735e-05
16 *1059:I *415:27 8.1598e-06
17 *1059:I *415:40 2.81126e-05
*RES
1 comp_p *1059:I 32.168 
*END

*D_NET *6 0.00589737
*CONN
*P data[0] O
*I *1079:Z O *D gf180mcu_fd_sc_mcu7t5v0__buf_3
*CAP
1 data[0] 0.00139689
2 *1079:Z 0.00139689
3 data[0] vref_z_p_o[10] 0
4 data[0] *1030:CLK 3.42651e-05
5 data[0] *1069:I 0.000321604
6 data[0] *1122:I 0.00215301
7 data[0] *339:16 0.000594713
*RES
1 *1079:Z data[0] 28.008 
*END

*D_NET *7 0.00203505
*CONN
*P data[1] O
*I *1080:Z O *D gf180mcu_fd_sc_mcu7t5v0__buf_3
*CAP
1 data[1] 0.000824912
2 *1080:Z 0.000824912
3 data[1] *734:A2 8.13929e-05
4 data[1] *1123:I 0.000188776
5 data[1] *367:22 0.000115061
*RES
1 *1080:Z data[1] 20.936 
*END

*D_NET *8 0.00210857
*CONN
*P data[2] O
*I *1081:Z O *D gf180mcu_fd_sc_mcu7t5v0__buf_3
*CAP
1 data[2] 0.00105429
2 *1081:Z 0.00105429
3 data[2] *734:A2 0
*RES
1 *1081:Z data[2] 21.456 
*END

*D_NET *9 0.00181484
*CONN
*P data[3] O
*I *1082:Z O *D gf180mcu_fd_sc_mcu7t5v0__buf_3
*CAP
1 data[3] 0.000907418
2 *1082:Z 0.000907418
*RES
1 *1082:Z data[3] 11.52 
*END

*D_NET *10 0.00174058
*CONN
*P data[4] O
*I *1083:Z O *D gf180mcu_fd_sc_mcu7t5v0__buf_3
*CAP
1 data[4] 0.00087029
2 *1083:Z 0.00087029
*RES
1 *1083:Z data[4] 11.312 
*END

*D_NET *11 0.0027931
*CONN
*P data[5] O
*I *1084:Z O *D gf180mcu_fd_sc_mcu7t5v0__buf_3
*CAP
1 data[5] 0.00085806
2 *1084:Z 0.00085806
3 data[5] *1123:I 0.000542895
4 data[5] *393:18 0.000534088
*RES
1 *1084:Z data[5] 21.352 
*END

*D_NET *12 0.0101917
*CONN
*P en_comp O
*I *1085:Z O *D gf180mcu_fd_sc_mcu7t5v0__buf_1
*CAP
1 en_comp 0.00173801
2 *1085:Z 0.00173801
3 en_comp sample_o 0.000131993
4 en_comp vss_p_o[0] 9.5382e-05
5 en_comp vss_p_o[4] 0.000116751
6 en_comp *848:A1 0.000402878
7 en_comp *849:B 2.77775e-05
8 en_comp *901:I 0.000144681
9 en_comp *973:I 5.63072e-05
10 en_comp *1085:I 0.00011434
11 en_comp *1089:I 0.000302062
12 en_comp *1091:I 0.000533905
13 en_comp *1138:I 0.000127364
14 en_comp *1139:I 0.00347082
15 en_comp *139:24 0.000247623
16 en_comp *320:16 0.000579191
17 en_comp *320:33 8.14957e-05
18 en_comp *408:24 0.00019287
19 en_comp *420:16 4.50736e-05
20 *1059:I en_comp 4.5163e-05
*RES
1 *1085:Z en_comp 35.184 
*END

*D_NET *13 0.0049193
*CONN
*P en_offset_cal I
*I *1070:I I *D gf180mcu_fd_sc_mcu7t5v0__clkbuf_1
*CAP
1 en_offset_cal 0.00211399
2 *1070:I 0.00211399
3 *1070:I vref_z_n_o[8] 9.84216e-05
4 *1070:I vref_z_n_o[9] 0.000108706
5 *1070:I *899:A1 4.91818e-05
6 *1070:I *1068:I 0.00027011
7 *1070:I *1112:I 0.000164895
8 *1070:I *367:22 0
9 *1070:I *380:22 0
10 *1070:I *393:18 0
11 *1070:I *419:33 0
*RES
1 en_offset_cal *1070:I 29.984 
*END

*D_NET *14 0.00977655
*CONN
*P en_offset_cal_o O
*I *1086:Z O *D gf180mcu_fd_sc_mcu7t5v0__clkbuf_4
*CAP
1 en_offset_cal_o 0.00213203
2 *1086:Z 0.00213203
3 en_offset_cal_o offset_cal_cycle 0.000433702
4 en_offset_cal_o vcm_o[10] 1.92859e-05
5 en_offset_cal_o *831:A1 0
6 en_offset_cal_o *831:A2 0
7 en_offset_cal_o *893:A2 0.000107753
8 en_offset_cal_o *924:A1 5.66347e-06
9 en_offset_cal_o *988:B1 0
10 en_offset_cal_o *988:B2 0.000851748
11 en_offset_cal_o *1100:I 5.47431e-06
12 en_offset_cal_o *326:14 0
13 en_offset_cal_o *398:16 0.00309367
14 en_offset_cal_o *412:10 3.80299e-05
15 en_offset_cal_o *416:30 0.00092094
16 en_offset_cal_o *419:82 1.85872e-06
17 en_offset_cal_o *434:12 3.43535e-05
*RES
1 *1086:Z en_offset_cal_o 33.208 
*END

*D_NET *15 0.00505186
*CONN
*P en_vcm_sw_o O
*I *1087:Z O *D gf180mcu_fd_sc_mcu7t5v0__clkbuf_4
*CAP
1 en_vcm_sw_o 0.00102477
2 *1087:Z 0.00102477
3 en_vcm_sw_o offset_cal_cycle 0.000871304
4 en_vcm_sw_o vcm_dummy_o 8.24501e-05
5 en_vcm_sw_o *915:A1 0.000113016
6 en_vcm_sw_o *1076:I 0.000488943
7 en_vcm_sw_o *1101:I 0
8 en_vcm_sw_o *16:17 3.54328e-05
9 en_vcm_sw_o *234:24 1.12327e-05
10 en_vcm_sw_o *239:12 0.00076216
11 en_vcm_sw_o *317:10 4.75973e-05
12 en_vcm_sw_o *353:12 0.000590189
*RES
1 *1087:Z en_vcm_sw_o 24.472 
*END

*D_NET *16 0.0134209
*CONN
*P en_vcm_sw_o_i I
*I *1071:I I *D gf180mcu_fd_sc_mcu7t5v0__clkbuf_1
*CAP
1 en_vcm_sw_o_i 0.00510185
2 *1071:I 2.35706e-05
3 *16:17 0.00512542
4 *1071:I *890:A1 9.84747e-05
5 *1071:I *165:28 9.84747e-05
6 *16:17 offset_cal_cycle 1.23172e-05
7 *16:17 *775:A1 0.00058286
8 *16:17 *903:A1 2.72437e-05
9 *16:17 *917:I 5.96095e-06
10 *16:17 *984:A1 0.000239458
11 *16:17 *1098:I 0.0005885
12 *16:17 *40:25 5.56391e-05
13 *16:17 *130:56 6.19233e-05
14 *16:17 *130:62 8.10089e-05
15 *16:17 *153:14 0.00110666
16 *16:17 *219:115 0.000176084
17 en_vcm_sw_o *16:17 3.54328e-05
*RES
1 en_vcm_sw_o_i *16:17 49.404 
2 *16:17 *1071:I 13.812 
*END

*D_NET *17 0.00924208
*CONN
*P offset_cal_cycle O
*I *1088:Z O *D gf180mcu_fd_sc_mcu7t5v0__clkbuf_4
*CAP
1 offset_cal_cycle 0.00156077
2 *1088:Z 0.00156077
3 offset_cal_cycle vss_n_o[1] 0.000823271
4 offset_cal_cycle vss_n_o[3] 0.000158402
5 offset_cal_cycle *787:A3 0.00052233
6 offset_cal_cycle *924:A3 0.00106737
7 offset_cal_cycle *1076:I 2.42322e-05
8 offset_cal_cycle *1130:I 0.000113016
9 offset_cal_cycle *313:53 9.78693e-05
10 offset_cal_cycle *313:68 6.22117e-05
11 offset_cal_cycle *317:10 2.93152e-05
12 offset_cal_cycle *398:16 0.000169881
13 offset_cal_cycle *416:30 0.000548443
14 offset_cal_cycle *434:12 0.00118687
15 en_offset_cal_o offset_cal_cycle 0.000433702
16 en_vcm_sw_o offset_cal_cycle 0.000871304
17 *16:17 offset_cal_cycle 1.23172e-05
*RES
1 *1088:Z offset_cal_cycle 32.168 
*END

*D_NET *18 0.00188008
*CONN
*P rst_z I
*I *1072:I I *D gf180mcu_fd_sc_mcu7t5v0__clkbuf_1
*CAP
1 rst_z 0.00094004
2 *1072:I 0.00094004
*RES
1 rst_z *1072:I 11.832 
*END

*D_NET *19 0.00172645
*CONN
*P sample_o O
*I *1089:Z O *D gf180mcu_fd_sc_mcu7t5v0__clkbuf_4
*CAP
1 sample_o 0.00074536
2 *1089:Z 0.00074536
3 sample_o *973:I 8.56628e-05
4 sample_o *1143:I 1.80703e-05
5 sample_o *234:12 0
6 en_comp sample_o 0.000131993
*RES
1 *1089:Z sample_o 10.688 
*END

*D_NET *20 0.00335388
*CONN
*P single_ended I
*I *1073:I I *D gf180mcu_fd_sc_mcu7t5v0__clkbuf_1
*CAP
1 single_ended 0.00129089
2 *1073:I 0.00129089
3 *1073:I vref_z_n_o[9] 0.000732955
4 *1073:I *1074:I 0
5 *1073:I *1103:I 0
6 *1073:I *1110:I 4.55636e-06
7 *1073:I *1111:I 0
8 *1073:I *419:33 3.4596e-05
*RES
1 single_ended *1073:I 15.16 
*END

*D_NET *21 0.00195045
*CONN
*P start I
*I *1074:I I *D gf180mcu_fd_sc_mcu7t5v0__clkbuf_1
*CAP
1 start 0.000975227
2 *1074:I 0.000975227
3 *1074:I vref_z_n_o[9] 0
4 *1073:I *1074:I 0
*RES
1 start *1074:I 12.248 
*END

*D_NET *22 0.00967753
*CONN
*P vcm_dummy_o O
*I *1090:Z O *D gf180mcu_fd_sc_mcu7t5v0__clkbuf_4
*CAP
1 vcm_dummy_o 0.00147576
2 *1090:Z 0.00147576
3 vcm_dummy_o vss_n_o[0] 5.13188e-06
4 vcm_dummy_o vss_n_o[2] 0.000428914
5 vcm_dummy_o *893:A1 0.00164536
6 vcm_dummy_o *902:A2 0.000247737
7 vcm_dummy_o *986:A1 0.000103788
8 vcm_dummy_o *986:B2 0.000190103
9 vcm_dummy_o *987:I 0.000254887
10 vcm_dummy_o *1034:D 0.000957848
11 vcm_dummy_o *1035:RN 3.35189e-05
12 vcm_dummy_o *1076:I 9.0656e-05
13 vcm_dummy_o *1086:I 0.000185679
14 vcm_dummy_o *1088:I 0.000991352
15 vcm_dummy_o *234:24 0.000263813
16 vcm_dummy_o *239:12 0.000722867
17 vcm_dummy_o *317:10 4.68358e-05
18 vcm_dummy_o *317:12 0.000159926
19 vcm_dummy_o *317:25 0.000107648
20 vcm_dummy_o *326:28 3.11766e-05
21 vcm_dummy_o *327:10 0.00015494
22 vcm_dummy_o *353:12 2.13874e-05
23 en_vcm_sw_o vcm_dummy_o 8.24501e-05
*RES
1 *1090:Z vcm_dummy_o 31.232 
*END

*D_NET *23 0.00252729
*CONN
*P vcm_o[0] O
*I *1091:Z O *D gf180mcu_fd_sc_mcu7t5v0__clkbuf_4
*CAP
1 vcm_o[0] 0.000746012
2 *1091:Z 0.000746012
3 vcm_o[0] vss_p_o[0] 0
4 vcm_o[0] *1075:I 0.000179388
5 vcm_o[0] *1093:I 0.000511856
6 *1059:I vcm_o[0] 0.000344024
*RES
1 *1091:Z vcm_o[0] 11.832 
*END

*D_NET *24 0.00977009
*CONN
*P vcm_o[10] O
*I *1092:Z O *D gf180mcu_fd_sc_mcu7t5v0__clkbuf_4
*CAP
1 vcm_o[10] 0.00188574
2 *1092:Z 0.00188574
3 vcm_o[10] *787:A3 4.36694e-05
4 vcm_o[10] *924:A1 9.15818e-05
5 vcm_o[10] *925:I 0.000258178
6 vcm_o[10] *967:I 0.0014223
7 vcm_o[10] *988:B1 0.000460432
8 vcm_o[10] *1036:D 0.000810727
9 vcm_o[10] *1065:I 0.000147794
10 vcm_o[10] *1067:I 9.67716e-05
11 vcm_o[10] *1076:I 0.000109635
12 vcm_o[10] *1087:I 0.000230973
13 vcm_o[10] *275:14 1.78256e-05
14 vcm_o[10] *313:77 0.000688572
15 vcm_o[10] *313:84 0.00106459
16 vcm_o[10] *313:91 0.000453883
17 vcm_o[10] *326:14 8.23834e-05
18 en_offset_cal_o vcm_o[10] 1.92859e-05
*RES
1 *1092:Z vcm_o[10] 33.104 
*END

*D_NET *25 0.00266655
*CONN
*P vcm_o[1] O
*I *1093:Z O *D gf180mcu_fd_sc_mcu7t5v0__clkbuf_4
*CAP
1 vcm_o[1] 0.000764511
2 *1093:Z 0.000764511
3 vcm_o[1] vss_p_o[1] 3.04056e-05
4 vcm_o[1] *901:I 0.000151346
5 vcm_o[1] *1075:I 0.00011146
6 vcm_o[1] *1077:I 9.8873e-05
7 *1059:I vcm_o[1] 0.000745445
*RES
1 *1093:Z vcm_o[1] 21.04 
*END

*D_NET *26 0.0018153
*CONN
*P vcm_o[2] O
*I *1094:Z O *D gf180mcu_fd_sc_mcu7t5v0__clkbuf_4
*CAP
1 vcm_o[2] 0.000698434
2 *1094:Z 0.000698434
3 vcm_o[2] *1060:I 0.000160306
4 vcm_o[2] *1077:I 8.21137e-05
5 vcm_o[2] *223:16 0.000176011
*RES
1 *1094:Z vcm_o[2] 10.376 
*END

*D_NET *27 0.00178391
*CONN
*P vcm_o[3] O
*I *1095:Z O *D gf180mcu_fd_sc_mcu7t5v0__clkbuf_4
*CAP
1 vcm_o[3] 0.000766235
2 *1095:Z 0.000766235
3 vcm_o[3] *1060:I 0.000107357
4 vcm_o[3] *1061:I 0.000107362
5 vcm_o[3] *328:64 2.26875e-05
6 *1059:I vcm_o[3] 1.40331e-05
*RES
1 *1095:Z vcm_o[3] 10.376 
*END
