* NGSPICE file created from state_machine.ext - technology: gf180mcuD

* Black-box entry subcircuit for gf180mcu_fd_sc_mcu7t5v0__filltie abstract view
.subckt gf180mcu_fd_sc_mcu7t5v0__filltie VDD VSS
.ends

* Black-box entry subcircuit for gf180mcu_fd_sc_mcu7t5v0__nor2_1 abstract view
.subckt gf180mcu_fd_sc_mcu7t5v0__nor2_1 A1 A2 ZN VDD VNW VPW VSS
.ends

* Black-box entry subcircuit for gf180mcu_fd_sc_mcu7t5v0__endcap abstract view
.subckt gf180mcu_fd_sc_mcu7t5v0__endcap VDD VSS
.ends

* Black-box entry subcircuit for gf180mcu_fd_sc_mcu7t5v0__aoi22_1 abstract view
.subckt gf180mcu_fd_sc_mcu7t5v0__aoi22_1 A1 A2 B1 B2 ZN VDD VNW VPW VSS
.ends

* Black-box entry subcircuit for gf180mcu_fd_sc_mcu7t5v0__clkbuf_1 abstract view
.subckt gf180mcu_fd_sc_mcu7t5v0__clkbuf_1 I Z VDD VNW VPW VSS
.ends

* Black-box entry subcircuit for gf180mcu_fd_sc_mcu7t5v0__nand2_1 abstract view
.subckt gf180mcu_fd_sc_mcu7t5v0__nand2_1 A1 A2 ZN VDD VNW VPW VSS
.ends

* Black-box entry subcircuit for gf180mcu_fd_sc_mcu7t5v0__oai21_1 abstract view
.subckt gf180mcu_fd_sc_mcu7t5v0__oai21_1 A1 A2 B ZN VDD VNW VPW VSS
.ends

* Black-box entry subcircuit for gf180mcu_fd_sc_mcu7t5v0__fill_1 abstract view
.subckt gf180mcu_fd_sc_mcu7t5v0__fill_1 VDD VNW VPW VSS
.ends

* Black-box entry subcircuit for gf180mcu_fd_sc_mcu7t5v0__fill_2 abstract view
.subckt gf180mcu_fd_sc_mcu7t5v0__fill_2 VDD VNW VPW VSS
.ends

* Black-box entry subcircuit for gf180mcu_fd_sc_mcu7t5v0__clkbuf_3 abstract view
.subckt gf180mcu_fd_sc_mcu7t5v0__clkbuf_3 I Z VDD VNW VPW VSS
.ends

* Black-box entry subcircuit for gf180mcu_fd_sc_mcu7t5v0__buf_3 abstract view
.subckt gf180mcu_fd_sc_mcu7t5v0__buf_3 I Z VDD VNW VPW VSS
.ends

* Black-box entry subcircuit for gf180mcu_fd_sc_mcu7t5v0__clkbuf_4 abstract view
.subckt gf180mcu_fd_sc_mcu7t5v0__clkbuf_4 I Z VDD VNW VPW VSS
.ends

* Black-box entry subcircuit for gf180mcu_fd_sc_mcu7t5v0__aoi21_1 abstract view
.subckt gf180mcu_fd_sc_mcu7t5v0__aoi21_1 A1 A2 B ZN VDD VNW VPW VSS
.ends

* Black-box entry subcircuit for gf180mcu_fd_sc_mcu7t5v0__or2_1 abstract view
.subckt gf180mcu_fd_sc_mcu7t5v0__or2_1 A1 A2 Z VDD VNW VPW VSS
.ends

* Black-box entry subcircuit for gf180mcu_fd_sc_mcu7t5v0__or3_1 abstract view
.subckt gf180mcu_fd_sc_mcu7t5v0__or3_1 A1 A2 A3 Z VDD VNW VPW VSS
.ends

* Black-box entry subcircuit for gf180mcu_fd_sc_mcu7t5v0__and3_1 abstract view
.subckt gf180mcu_fd_sc_mcu7t5v0__and3_1 A1 A2 A3 Z VDD VNW VPW VSS
.ends

* Black-box entry subcircuit for gf180mcu_fd_sc_mcu7t5v0__clkinv_1 abstract view
.subckt gf180mcu_fd_sc_mcu7t5v0__clkinv_1 I ZN VDD VNW VPW VSS
.ends

* Black-box entry subcircuit for gf180mcu_fd_sc_mcu7t5v0__oai211_1 abstract view
.subckt gf180mcu_fd_sc_mcu7t5v0__oai211_1 A1 A2 B C ZN VDD VNW VPW VSS
.ends

* Black-box entry subcircuit for gf180mcu_fd_sc_mcu7t5v0__buf_2 abstract view
.subckt gf180mcu_fd_sc_mcu7t5v0__buf_2 I Z VDD VNW VPW VSS
.ends

* Black-box entry subcircuit for gf180mcu_fd_sc_mcu7t5v0__mux2_2 abstract view
.subckt gf180mcu_fd_sc_mcu7t5v0__mux2_2 I0 I1 S Z VDD VNW VPW VSS
.ends

* Black-box entry subcircuit for gf180mcu_fd_sc_mcu7t5v0__oai31_1 abstract view
.subckt gf180mcu_fd_sc_mcu7t5v0__oai31_1 A1 A2 A3 B ZN VDD VNW VPW VSS
.ends

* Black-box entry subcircuit for gf180mcu_fd_sc_mcu7t5v0__inv_1 abstract view
.subckt gf180mcu_fd_sc_mcu7t5v0__inv_1 I ZN VDD VNW VPW VSS
.ends

* Black-box entry subcircuit for gf180mcu_fd_sc_mcu7t5v0__nand4_1 abstract view
.subckt gf180mcu_fd_sc_mcu7t5v0__nand4_1 A1 A2 A3 A4 ZN VDD VNW VPW VSS
.ends

* Black-box entry subcircuit for gf180mcu_fd_sc_mcu7t5v0__nor3_1 abstract view
.subckt gf180mcu_fd_sc_mcu7t5v0__nor3_1 A1 A2 A3 ZN VDD VNW VPW VSS
.ends

* Black-box entry subcircuit for gf180mcu_fd_sc_mcu7t5v0__clkbuf_8 abstract view
.subckt gf180mcu_fd_sc_mcu7t5v0__clkbuf_8 I Z VDD VNW VPW VSS
.ends

* Black-box entry subcircuit for gf180mcu_fd_sc_mcu7t5v0__clkinv_3 abstract view
.subckt gf180mcu_fd_sc_mcu7t5v0__clkinv_3 I ZN VDD VNW VPW VSS
.ends

* Black-box entry subcircuit for gf180mcu_fd_sc_mcu7t5v0__fillcap_4 abstract view
.subckt gf180mcu_fd_sc_mcu7t5v0__fillcap_4 VDD VNW VPW VSS
.ends

* Black-box entry subcircuit for gf180mcu_fd_sc_mcu7t5v0__nand2_2 abstract view
.subckt gf180mcu_fd_sc_mcu7t5v0__nand2_2 A1 A2 ZN VDD VNW VPW VSS
.ends

* Black-box entry subcircuit for gf180mcu_fd_sc_mcu7t5v0__fillcap_32 abstract view
.subckt gf180mcu_fd_sc_mcu7t5v0__fillcap_32 VDD VNW VPW VSS
.ends

* Black-box entry subcircuit for gf180mcu_fd_sc_mcu7t5v0__buf_1 abstract view
.subckt gf180mcu_fd_sc_mcu7t5v0__buf_1 I Z VDD VNW VPW VSS
.ends

* Black-box entry subcircuit for gf180mcu_fd_sc_mcu7t5v0__clkbuf_16 abstract view
.subckt gf180mcu_fd_sc_mcu7t5v0__clkbuf_16 I Z VDD VNW VPW VSS
.ends

* Black-box entry subcircuit for gf180mcu_fd_sc_mcu7t5v0__clkinv_2 abstract view
.subckt gf180mcu_fd_sc_mcu7t5v0__clkinv_2 I ZN VDD VNW VPW VSS
.ends

* Black-box entry subcircuit for gf180mcu_fd_sc_mcu7t5v0__dffrnq_1 abstract view
.subckt gf180mcu_fd_sc_mcu7t5v0__dffrnq_1 D RN CLK Q VDD VNW VPW VSS
.ends

* Black-box entry subcircuit for gf180mcu_fd_sc_mcu7t5v0__nor4_2 abstract view
.subckt gf180mcu_fd_sc_mcu7t5v0__nor4_2 A1 A2 A3 A4 ZN VDD VNW VPW VSS
.ends

* Black-box entry subcircuit for gf180mcu_fd_sc_mcu7t5v0__nand4_2 abstract view
.subckt gf180mcu_fd_sc_mcu7t5v0__nand4_2 A1 A2 A3 A4 ZN VDD VNW VPW VSS
.ends

* Black-box entry subcircuit for gf180mcu_fd_sc_mcu7t5v0__dffrnq_2 abstract view
.subckt gf180mcu_fd_sc_mcu7t5v0__dffrnq_2 D RN CLK Q VDD VNW VPW VSS
.ends

* Black-box entry subcircuit for gf180mcu_fd_sc_mcu7t5v0__nand3_1 abstract view
.subckt gf180mcu_fd_sc_mcu7t5v0__nand3_1 A1 A2 A3 ZN VDD VNW VPW VSS
.ends

* Black-box entry subcircuit for gf180mcu_fd_sc_mcu7t5v0__oai31_2 abstract view
.subckt gf180mcu_fd_sc_mcu7t5v0__oai31_2 A1 A2 A3 B ZN VDD VNW VPW VSS
.ends

* Black-box entry subcircuit for gf180mcu_fd_sc_mcu7t5v0__nand3_2 abstract view
.subckt gf180mcu_fd_sc_mcu7t5v0__nand3_2 A1 A2 A3 ZN VDD VNW VPW VSS
.ends

* Black-box entry subcircuit for gf180mcu_fd_sc_mcu7t5v0__oai221_1 abstract view
.subckt gf180mcu_fd_sc_mcu7t5v0__oai221_1 A1 A2 B1 B2 C ZN VDD VNW VPW VSS
.ends

* Black-box entry subcircuit for gf180mcu_fd_sc_mcu7t5v0__nor4_4 abstract view
.subckt gf180mcu_fd_sc_mcu7t5v0__nor4_4 A1 A2 A3 A4 ZN VDD VNW VPW VSS
.ends

* Black-box entry subcircuit for gf180mcu_fd_sc_mcu7t5v0__nor2_4 abstract view
.subckt gf180mcu_fd_sc_mcu7t5v0__nor2_4 A1 A2 ZN VDD VNW VPW VSS
.ends

* Black-box entry subcircuit for gf180mcu_fd_sc_mcu7t5v0__oai211_2 abstract view
.subckt gf180mcu_fd_sc_mcu7t5v0__oai211_2 A1 A2 B C ZN VDD VNW VPW VSS
.ends

* Black-box entry subcircuit for gf180mcu_fd_sc_mcu7t5v0__and2_1 abstract view
.subckt gf180mcu_fd_sc_mcu7t5v0__and2_1 A1 A2 Z VDD VNW VPW VSS
.ends

* Black-box entry subcircuit for gf180mcu_fd_sc_mcu7t5v0__aoi211_2 abstract view
.subckt gf180mcu_fd_sc_mcu7t5v0__aoi211_2 A1 A2 B C ZN VDD VNW VPW VSS
.ends

* Black-box entry subcircuit for gf180mcu_fd_sc_mcu7t5v0__oai221_2 abstract view
.subckt gf180mcu_fd_sc_mcu7t5v0__oai221_2 A1 A2 B1 B2 C ZN VDD VNW VPW VSS
.ends

* Black-box entry subcircuit for gf180mcu_fd_sc_mcu7t5v0__fillcap_8 abstract view
.subckt gf180mcu_fd_sc_mcu7t5v0__fillcap_8 VDD VNW VPW VSS
.ends

* Black-box entry subcircuit for gf180mcu_fd_sc_mcu7t5v0__oai22_1 abstract view
.subckt gf180mcu_fd_sc_mcu7t5v0__oai22_1 A1 A2 B1 B2 ZN VDD VNW VPW VSS
.ends

* Black-box entry subcircuit for gf180mcu_fd_sc_mcu7t5v0__nor3_4 abstract view
.subckt gf180mcu_fd_sc_mcu7t5v0__nor3_4 A1 A2 A3 ZN VDD VNW VPW VSS
.ends

* Black-box entry subcircuit for gf180mcu_fd_sc_mcu7t5v0__or2_2 abstract view
.subckt gf180mcu_fd_sc_mcu7t5v0__or2_2 A1 A2 Z VDD VNW VPW VSS
.ends

* Black-box entry subcircuit for gf180mcu_fd_sc_mcu7t5v0__inv_2 abstract view
.subckt gf180mcu_fd_sc_mcu7t5v0__inv_2 I ZN VDD VNW VPW VSS
.ends

* Black-box entry subcircuit for gf180mcu_fd_sc_mcu7t5v0__fillcap_16 abstract view
.subckt gf180mcu_fd_sc_mcu7t5v0__fillcap_16 VDD VNW VPW VSS
.ends

* Black-box entry subcircuit for gf180mcu_fd_sc_mcu7t5v0__nor2_2 abstract view
.subckt gf180mcu_fd_sc_mcu7t5v0__nor2_2 A1 A2 ZN VDD VNW VPW VSS
.ends

* Black-box entry subcircuit for gf180mcu_fd_sc_mcu7t5v0__aoi21_2 abstract view
.subckt gf180mcu_fd_sc_mcu7t5v0__aoi21_2 A1 A2 B ZN VDD VNW VPW VSS
.ends

* Black-box entry subcircuit for gf180mcu_fd_sc_mcu7t5v0__oai32_1 abstract view
.subckt gf180mcu_fd_sc_mcu7t5v0__oai32_1 A1 A2 A3 B1 B2 ZN VDD VNW VPW VSS
.ends

.subckt state_machine VDD VSS clk clk_data comp_p data[0] data[1] data[2] data[3]
+ data[4] data[5] en_comp en_offset_cal en_offset_cal_o en_vcm_sw_o en_vcm_sw_o_i
+ offset_cal_cycle rst_z sample_o single_ended start vcm_dummy_o vcm_o[0] vcm_o[10]
+ vcm_o[1] vcm_o[2] vcm_o[3] vcm_o[4] vcm_o[5] vcm_o[6] vcm_o[7] vcm_o[8] vcm_o[9]
+ vcm_o_i[0] vcm_o_i[10] vcm_o_i[1] vcm_o_i[2] vcm_o_i[3] vcm_o_i[4] vcm_o_i[5] vcm_o_i[6]
+ vcm_o_i[7] vcm_o_i[8] vcm_o_i[9] vin_n_sw_on vin_p_sw_on vref_z_n_o[0] vref_z_n_o[10]
+ vref_z_n_o[1] vref_z_n_o[2] vref_z_n_o[3] vref_z_n_o[4] vref_z_n_o[5] vref_z_n_o[6]
+ vref_z_n_o[7] vref_z_n_o[8] vref_z_n_o[9] vref_z_p_o[0] vref_z_p_o[10] vref_z_p_o[1]
+ vref_z_p_o[2] vref_z_p_o[3] vref_z_p_o[4] vref_z_p_o[5] vref_z_p_o[6] vref_z_p_o[7]
+ vref_z_p_o[8] vref_z_p_o[9] vss_n_o[0] vss_n_o[10] vss_n_o[1] vss_n_o[2] vss_n_o[3]
+ vss_n_o[4] vss_n_o[5] vss_n_o[6] vss_n_o[7] vss_n_o[8] vss_n_o[9] vss_p_o[0] vss_p_o[10]
+ vss_p_o[1] vss_p_o[2] vss_p_o[3] vss_p_o[4] vss_p_o[5] vss_p_o[6] vss_p_o[7] vss_p_o[8]
+ vss_p_o[9]
XTAP_TAPCELL_ROW_24_117 VDD VSS gf180mcu_fd_sc_mcu7t5v0__filltie
X_432_ _038_ _026_ _164_ VDD VDD VSS VSS gf180mcu_fd_sc_mcu7t5v0__nor2_1
XPHY_EDGE_ROW_21_Left_48 VDD VSS gf180mcu_fd_sc_mcu7t5v0__endcap
X_363_ _104_ result\[8\] _068_ _121_ _122_ VDD VDD VSS VSS gf180mcu_fd_sc_mcu7t5v0__aoi22_1
X_501_ _141_ _212_ _213_ VDD VDD VSS VSS gf180mcu_fd_sc_mcu7t5v0__nor2_1
X_294_ _079_ net46 VDD VDD VSS VSS gf180mcu_fd_sc_mcu7t5v0__clkbuf_1
XTAP_TAPCELL_ROW_21_109 VDD VSS gf180mcu_fd_sc_mcu7t5v0__filltie
XTAP_TAPCELL_ROW_12_87 VDD VSS gf180mcu_fd_sc_mcu7t5v0__filltie
X_346_ _104_ result\[3\] _110_ VDD VDD VSS VSS gf180mcu_fd_sc_mcu7t5v0__nand2_1
XTAP_TAPCELL_ROW_8_77 VDD VSS gf180mcu_fd_sc_mcu7t5v0__filltie
X_415_ _141_ _146_ _129_ net29 VDD VDD VSS VSS gf180mcu_fd_sc_mcu7t5v0__oai21_1
X_277_ result\[8\] _068_ _051_ net74 VDD VDD VSS VSS gf180mcu_fd_sc_mcu7t5v0__oai21_1
XPHY_EDGE_ROW_24_Left_51 VDD VSS gf180mcu_fd_sc_mcu7t5v0__endcap
X_329_ _098_ net54 VDD VDD VSS VSS gf180mcu_fd_sc_mcu7t5v0__clkbuf_1
XFILLER_0_10_96 VDD VDD VSS VSS gf180mcu_fd_sc_mcu7t5v0__fill_1
XFILLER_0_19_72 VDD VDD VSS VSS gf180mcu_fd_sc_mcu7t5v0__fill_2
XFILLER_0_25_139 VDD VDD VSS VSS gf180mcu_fd_sc_mcu7t5v0__fill_1
XFILLER_0_24_161 VDD VDD VSS VSS gf180mcu_fd_sc_mcu7t5v0__fill_2
XFILLER_0_1_72 VDD VDD VSS VSS gf180mcu_fd_sc_mcu7t5v0__fill_2
Xoutput53 net53 vref_z_n_o[8] VDD VDD VSS VSS gf180mcu_fd_sc_mcu7t5v0__clkbuf_3
Xoutput64 net64 vref_z_p_o[8] VDD VDD VSS VSS gf180mcu_fd_sc_mcu7t5v0__clkbuf_3
Xoutput20 net20 clk_data VDD VDD VSS VSS gf180mcu_fd_sc_mcu7t5v0__buf_3
Xoutput42 net42 vcm_o[8] VDD VDD VSS VSS gf180mcu_fd_sc_mcu7t5v0__clkbuf_4
Xoutput31 net31 sample_o VDD VDD VSS VSS gf180mcu_fd_sc_mcu7t5v0__clkbuf_4
Xoutput86 net86 vss_p_o[8] VDD VDD VSS VSS gf180mcu_fd_sc_mcu7t5v0__clkbuf_3
Xoutput75 net75 vss_n_o[8] VDD VDD VSS VSS gf180mcu_fd_sc_mcu7t5v0__clkbuf_3
XTAP_TAPCELL_ROW_24_118 VDD VSS gf180mcu_fd_sc_mcu7t5v0__filltie
X_431_ _074_ _075_ _036_ _163_ VDD VDD VSS VSS gf180mcu_fd_sc_mcu7t5v0__aoi21_1
X_362_ counter\[9\] _076_ _121_ VDD VDD VSS VSS gf180mcu_fd_sc_mcu7t5v0__nand2_1
X_500_ _038_ _196_ _211_ _212_ VDD VDD VSS VSS gf180mcu_fd_sc_mcu7t5v0__aoi21_1
X_293_ _032_ _054_ _079_ VDD VDD VSS VSS gf180mcu_fd_sc_mcu7t5v0__or2_1
XTAP_TAPCELL_ROW_12_88 VDD VSS gf180mcu_fd_sc_mcu7t5v0__filltie
XTAP_TAPCELL_ROW_8_78 VDD VSS gf180mcu_fd_sc_mcu7t5v0__filltie
X_345_ _083_ _050_ _109_ VDD VDD VSS VSS gf180mcu_fd_sc_mcu7t5v0__nor2_1
X_276_ _046_ _067_ net15 _068_ VDD VDD VSS VSS gf180mcu_fd_sc_mcu7t5v0__or3_1
X_414_ _150_ net30 VDD VDD VSS VSS gf180mcu_fd_sc_mcu7t5v0__clkbuf_1
XPHY_EDGE_ROW_21_Right_21 VDD VSS gf180mcu_fd_sc_mcu7t5v0__endcap
XPHY_EDGE_ROW_12_Right_12 VDD VSS gf180mcu_fd_sc_mcu7t5v0__endcap
X_328_ _097_ _072_ _098_ VDD VDD VSS VSS gf180mcu_fd_sc_mcu7t5v0__or2_1
XFILLER_0_9_39 VDD VDD VSS VSS gf180mcu_fd_sc_mcu7t5v0__fill_2
X_259_ _052_ _055_ _056_ VDD VDD VSS VSS gf180mcu_fd_sc_mcu7t5v0__nand2_1
XFILLER_0_10_53 VDD VDD VSS VSS gf180mcu_fd_sc_mcu7t5v0__fill_1
XFILLER_0_21_63 VDD VDD VSS VSS gf180mcu_fd_sc_mcu7t5v0__fill_1
XFILLER_0_16_107 VDD VDD VSS VSS gf180mcu_fd_sc_mcu7t5v0__fill_2
XPHY_EDGE_ROW_6_Right_6 VDD VSS gf180mcu_fd_sc_mcu7t5v0__endcap
Xoutput65 net65 vref_z_p_o[9] VDD VDD VSS VSS gf180mcu_fd_sc_mcu7t5v0__clkbuf_3
Xoutput54 net54 vref_z_n_o[9] VDD VDD VSS VSS gf180mcu_fd_sc_mcu7t5v0__clkbuf_3
Xoutput21 net21 data[0] VDD VDD VSS VSS gf180mcu_fd_sc_mcu7t5v0__buf_3
Xoutput43 net43 vcm_o[9] VDD VDD VSS VSS gf180mcu_fd_sc_mcu7t5v0__clkbuf_4
Xoutput32 net32 vcm_dummy_o VDD VDD VSS VSS gf180mcu_fd_sc_mcu7t5v0__clkbuf_4
XFILLER_0_9_2 VDD VDD VSS VSS gf180mcu_fd_sc_mcu7t5v0__fill_1
Xoutput76 net76 vss_n_o[9] VDD VDD VSS VSS gf180mcu_fd_sc_mcu7t5v0__clkbuf_3
Xoutput87 net87 vss_p_o[9] VDD VDD VSS VSS gf180mcu_fd_sc_mcu7t5v0__clkbuf_3
X_430_ _162_ _003_ VDD VDD VSS VSS gf180mcu_fd_sc_mcu7t5v0__clkbuf_1
X_361_ _040_ _118_ _120_ net62 VDD VDD VSS VSS gf180mcu_fd_sc_mcu7t5v0__oai21_1
X_292_ net44 _078_ net77 VDD VDD VSS VSS gf180mcu_fd_sc_mcu7t5v0__nand2_1
X_413_ net2 _135_ _145_ _150_ VDD VDD VSS VSS gf180mcu_fd_sc_mcu7t5v0__and3_1
X_275_ counter\[8\] _067_ VDD VDD VSS VSS gf180mcu_fd_sc_mcu7t5v0__clkinv_1
X_344_ _105_ _030_ _107_ _108_ net57 VDD VDD VSS VSS gf180mcu_fd_sc_mcu7t5v0__oai211_1
X_327_ result\[10\] _097_ VDD VDD VSS VSS gf180mcu_fd_sc_mcu7t5v0__clkinv_1
X_258_ counter\[3\] _055_ VDD VDD VSS VSS gf180mcu_fd_sc_mcu7t5v0__buf_2
XTAP_TAPCELL_ROW_5_69 VDD VSS gf180mcu_fd_sc_mcu7t5v0__filltie
XFILLER_0_1_74 VDD VDD VSS VSS gf180mcu_fd_sc_mcu7t5v0__fill_1
XFILLER_0_21_100 VDD VDD VSS VSS gf180mcu_fd_sc_mcu7t5v0__fill_2
XFILLER_0_12_144 VDD VDD VSS VSS gf180mcu_fd_sc_mcu7t5v0__fill_2
Xoutput22 net22 data[1] VDD VDD VSS VSS gf180mcu_fd_sc_mcu7t5v0__buf_3
Xoutput66 net66 vss_n_o[0] VDD VDD VSS VSS gf180mcu_fd_sc_mcu7t5v0__clkbuf_4
Xoutput77 net77 vss_p_o[0] VDD VDD VSS VSS gf180mcu_fd_sc_mcu7t5v0__clkbuf_4
Xoutput33 net33 vcm_o[0] VDD VDD VSS VSS gf180mcu_fd_sc_mcu7t5v0__clkbuf_4
Xoutput55 net55 vref_z_p_o[0] VDD VDD VSS VSS gf180mcu_fd_sc_mcu7t5v0__clkbuf_3
Xoutput44 net44 vref_z_n_o[0] VDD VDD VSS VSS gf180mcu_fd_sc_mcu7t5v0__clkbuf_3
X_291_ result\[0\] _077_ net32 _040_ _078_ VDD VDD VSS VSS gf180mcu_fd_sc_mcu7t5v0__oai211_1
X_360_ _039_ result\[6\] _066_ _119_ _120_ VDD VDD VSS VSS gf180mcu_fd_sc_mcu7t5v0__aoi22_1
X_489_ _201_ net1 _203_ _204_ VDD VDD VSS VSS gf180mcu_fd_sc_mcu7t5v0__mux2_2
X_343_ _105_ result\[2\] _108_ VDD VDD VSS VSS gf180mcu_fd_sc_mcu7t5v0__nand2_1
X_412_ clknet_2_0__leaf_clk _149_ net27 VDD VDD VSS VSS gf180mcu_fd_sc_mcu7t5v0__nor2_1
X_274_ result\[7\] _066_ _051_ net73 VDD VDD VSS VSS gf180mcu_fd_sc_mcu7t5v0__oai21_1
XFILLER_0_24_20 VDD VDD VSS VSS gf180mcu_fd_sc_mcu7t5v0__fill_1
Xfanout90 net91 net90 VDD VDD VSS VSS gf180mcu_fd_sc_mcu7t5v0__buf_3
X_326_ net53 _096_ net86 VDD VDD VSS VSS gf180mcu_fd_sc_mcu7t5v0__nand2_1
X_257_ result\[2\] _054_ _051_ net68 VDD VDD VSS VSS gf180mcu_fd_sc_mcu7t5v0__oai21_1
XFILLER_0_19_106 VDD VDD VSS VSS gf180mcu_fd_sc_mcu7t5v0__fill_2
XFILLER_0_16_109 VDD VDD VSS VSS gf180mcu_fd_sc_mcu7t5v0__fill_1
XPHY_EDGE_ROW_12_Left_39 VDD VSS gf180mcu_fd_sc_mcu7t5v0__endcap
X_309_ net49 _087_ net82 VDD VDD VSS VSS gf180mcu_fd_sc_mcu7t5v0__nand2_1
XFILLER_0_15_175 VDD VDD VSS VSS gf180mcu_fd_sc_mcu7t5v0__fill_2
XFILLER_0_15_142 VDD VDD VSS VSS gf180mcu_fd_sc_mcu7t5v0__fill_2
XFILLER_0_16_21 VDD VDD VSS VSS gf180mcu_fd_sc_mcu7t5v0__fill_1
XFILLER_0_8_117 VDD VDD VSS VSS gf180mcu_fd_sc_mcu7t5v0__fill_1
Xoutput45 net45 vref_z_n_o[10] VDD VDD VSS VSS gf180mcu_fd_sc_mcu7t5v0__clkbuf_3
Xoutput56 net56 vref_z_p_o[10] VDD VDD VSS VSS gf180mcu_fd_sc_mcu7t5v0__clkbuf_3
Xoutput23 net23 data[2] VDD VDD VSS VSS gf180mcu_fd_sc_mcu7t5v0__buf_3
Xoutput34 net34 vcm_o[10] VDD VDD VSS VSS gf180mcu_fd_sc_mcu7t5v0__clkbuf_4
Xoutput78 net78 vss_p_o[10] VDD VDD VSS VSS gf180mcu_fd_sc_mcu7t5v0__clkbuf_3
Xoutput67 net67 vss_n_o[10] VDD VDD VSS VSS gf180mcu_fd_sc_mcu7t5v0__clkbuf_3
XPHY_EDGE_ROW_15_Left_42 VDD VSS gf180mcu_fd_sc_mcu7t5v0__endcap
X_488_ _038_ counter\[5\] _165_ _202_ _203_ VDD VDD VSS VSS gf180mcu_fd_sc_mcu7t5v0__oai31_1
X_290_ counter\[2\] _076_ _077_ VDD VDD VSS VSS gf180mcu_fd_sc_mcu7t5v0__nand2_1
XFILLER_0_1_101 VDD VDD VSS VSS gf180mcu_fd_sc_mcu7t5v0__fill_2
X_273_ _065_ _066_ VDD VDD VSS VSS gf180mcu_fd_sc_mcu7t5v0__clkinv_1
XPHY_EDGE_ROW_0_Left_27 VDD VSS gf180mcu_fd_sc_mcu7t5v0__endcap
X_411_ net2 _146_ _148_ _149_ VDD VDD VSS VSS gf180mcu_fd_sc_mcu7t5v0__oai21_1
X_342_ _054_ _106_ _107_ VDD VDD VSS VSS gf180mcu_fd_sc_mcu7t5v0__nand2_1
XTAP_TAPCELL_ROW_13_90 VDD VSS gf180mcu_fd_sc_mcu7t5v0__filltie
Xfanout91 net4 net91 VDD VDD VSS VSS gf180mcu_fd_sc_mcu7t5v0__buf_2
X_325_ result\[8\] _095_ net32 _039_ _096_ VDD VDD VSS VSS gf180mcu_fd_sc_mcu7t5v0__oai211_1
X_256_ net9 _053_ _054_ VDD VDD VSS VSS gf180mcu_fd_sc_mcu7t5v0__or2_1
XTAP_TAPCELL_ROW_9_80 VDD VSS gf180mcu_fd_sc_mcu7t5v0__filltie
XPHY_EDGE_ROW_3_Left_30 VDD VSS gf180mcu_fd_sc_mcu7t5v0__endcap
Xclkload0 clknet_2_1__leaf_clk clkload0/ZN VDD VDD VSS VSS gf180mcu_fd_sc_mcu7t5v0__inv_1
X_239_ _039_ _040_ VDD VDD VSS VSS gf180mcu_fd_sc_mcu7t5v0__buf_2
X_308_ _061_ result\[4\] net32 _040_ _087_ VDD VDD VSS VSS gf180mcu_fd_sc_mcu7t5v0__oai211_1
XFILLER_0_21_102 VDD VDD VSS VSS gf180mcu_fd_sc_mcu7t5v0__fill_1
Xoutput24 net24 data[3] VDD VDD VSS VSS gf180mcu_fd_sc_mcu7t5v0__buf_3
XFILLER_0_18_2 VDD VDD VSS VSS gf180mcu_fd_sc_mcu7t5v0__fill_1
Xoutput46 net46 vref_z_n_o[1] VDD VDD VSS VSS gf180mcu_fd_sc_mcu7t5v0__clkbuf_3
Xoutput35 net35 vcm_o[1] VDD VDD VSS VSS gf180mcu_fd_sc_mcu7t5v0__clkbuf_4
Xoutput57 net57 vref_z_p_o[1] VDD VDD VSS VSS gf180mcu_fd_sc_mcu7t5v0__clkbuf_3
XPHY_EDGE_ROW_19_Right_19 VDD VSS gf180mcu_fd_sc_mcu7t5v0__endcap
Xoutput79 net79 vss_p_o[1] VDD VDD VSS VSS gf180mcu_fd_sc_mcu7t5v0__clkbuf_3
Xoutput68 net68 vss_n_o[1] VDD VDD VSS VSS gf180mcu_fd_sc_mcu7t5v0__clkbuf_3
X_487_ _046_ counter\[7\] _061_ _147_ _202_ VDD VDD VSS VSS gf180mcu_fd_sc_mcu7t5v0__nand4_1
X_410_ _147_ _148_ VDD VDD VSS VSS gf180mcu_fd_sc_mcu7t5v0__clkbuf_3
X_272_ _046_ _064_ net14 _065_ VDD VDD VSS VSS gf180mcu_fd_sc_mcu7t5v0__nor3_1
X_341_ _055_ _076_ _106_ VDD VDD VSS VSS gf180mcu_fd_sc_mcu7t5v0__nand2_1
X_324_ counter\[10\] _076_ _095_ VDD VDD VSS VSS gf180mcu_fd_sc_mcu7t5v0__nand2_1
X_255_ _052_ counter\[2\] _053_ VDD VDD VSS VSS gf180mcu_fd_sc_mcu7t5v0__nand2_1
XFILLER_0_19_108 VDD VDD VSS VSS gf180mcu_fd_sc_mcu7t5v0__fill_1
Xclkload1 clknet_2_2__leaf_clk clkload1/Z VDD VDD VSS VSS gf180mcu_fd_sc_mcu7t5v0__clkbuf_8
XFILLER_0_24_111 VDD VDD VSS VSS gf180mcu_fd_sc_mcu7t5v0__fill_2
X_238_ _038_ _039_ VDD VDD VSS VSS gf180mcu_fd_sc_mcu7t5v0__buf_2
X_307_ result\[5\] _059_ net49 VDD VDD VSS VSS gf180mcu_fd_sc_mcu7t5v0__nand2_1
XFILLER_0_15_133 VDD VDD VSS VSS gf180mcu_fd_sc_mcu7t5v0__fill_1
XTAP_TAPCELL_ROW_10_81 VDD VSS gf180mcu_fd_sc_mcu7t5v0__filltie
XTAP_TAPCELL_ROW_6_71 VDD VSS gf180mcu_fd_sc_mcu7t5v0__filltie
Xoutput25 net25 data[4] VDD VDD VSS VSS gf180mcu_fd_sc_mcu7t5v0__buf_3
Xoutput47 net47 vref_z_n_o[2] VDD VDD VSS VSS gf180mcu_fd_sc_mcu7t5v0__clkbuf_3
Xoutput58 net58 vref_z_p_o[2] VDD VDD VSS VSS gf180mcu_fd_sc_mcu7t5v0__clkbuf_3
Xoutput36 net36 vcm_o[2] VDD VDD VSS VSS gf180mcu_fd_sc_mcu7t5v0__clkbuf_4
Xoutput69 net69 vss_n_o[2] VDD VDD VSS VSS gf180mcu_fd_sc_mcu7t5v0__clkbuf_3
XFILLER_0_1_103 VDD VDD VSS VSS gf180mcu_fd_sc_mcu7t5v0__fill_1
X_486_ _074_ _075_ _041_ _201_ VDD VDD VSS VSS gf180mcu_fd_sc_mcu7t5v0__aoi21_1
X_340_ _104_ _105_ VDD VDD VSS VSS gf180mcu_fd_sc_mcu7t5v0__buf_3
X_271_ counter\[7\] _064_ VDD VDD VSS VSS gf180mcu_fd_sc_mcu7t5v0__clkinv_1
X_469_ counter\[7\] _148_ _184_ counter\[6\] _191_ VDD VDD VSS VSS gf180mcu_fd_sc_mcu7t5v0__aoi22_1
X_323_ _094_ net53 VDD VDD VSS VSS gf180mcu_fd_sc_mcu7t5v0__clkbuf_1
X_254_ single_ended_reg _052_ VDD VDD VSS VSS gf180mcu_fd_sc_mcu7t5v0__clkinv_3
Xclkload2 clknet_2_3__leaf_clk clkload2/Z VDD VDD VSS VSS gf180mcu_fd_sc_mcu7t5v0__clkbuf_8
XFILLER_0_24_167 VDD VDD VSS VSS gf180mcu_fd_sc_mcu7t5v0__fill_2
XFILLER_0_24_101 VDD VDD VSS VSS gf180mcu_fd_sc_mcu7t5v0__fillcap_4
XFILLER_0_21_24 VDD VDD VSS VSS gf180mcu_fd_sc_mcu7t5v0__fill_1
X_237_ single_ended_reg _038_ VDD VDD VSS VSS gf180mcu_fd_sc_mcu7t5v0__clkbuf_3
X_306_ net48 _086_ net81 VDD VDD VSS VSS gf180mcu_fd_sc_mcu7t5v0__nand2_1
XTAP_TAPCELL_ROW_10_82 VDD VSS gf180mcu_fd_sc_mcu7t5v0__filltie
XTAP_TAPCELL_ROW_6_72 VDD VSS gf180mcu_fd_sc_mcu7t5v0__filltie
Xoutput26 net26 data[5] VDD VDD VSS VSS gf180mcu_fd_sc_mcu7t5v0__buf_3
XTAP_TAPCELL_ROW_26_121 VDD VSS gf180mcu_fd_sc_mcu7t5v0__filltie
Xoutput59 net59 vref_z_p_o[3] VDD VDD VSS VSS gf180mcu_fd_sc_mcu7t5v0__clkbuf_3
Xoutput48 net48 vref_z_n_o[3] VDD VDD VSS VSS gf180mcu_fd_sc_mcu7t5v0__clkbuf_3
XPHY_EDGE_ROW_1_Right_1 VDD VSS gf180mcu_fd_sc_mcu7t5v0__endcap
Xoutput37 net37 vcm_o[3] VDD VDD VSS VSS gf180mcu_fd_sc_mcu7t5v0__clkbuf_4
XFILLER_0_7_142 VDD VDD VSS VSS gf180mcu_fd_sc_mcu7t5v0__fill_2
XFILLER_0_1_148 VDD VDD VSS VSS gf180mcu_fd_sc_mcu7t5v0__fill_1
X_485_ _197_ _198_ _199_ _200_ _020_ VDD VDD VSS VSS gf180mcu_fd_sc_mcu7t5v0__oai31_1
XFILLER_0_13_69 VDD VDD VSS VSS gf180mcu_fd_sc_mcu7t5v0__fill_1
XPHY_EDGE_ROW_19_Left_46 VDD VSS gf180mcu_fd_sc_mcu7t5v0__endcap
X_270_ result\[6\] _063_ _051_ net72 VDD VDD VSS VSS gf180mcu_fd_sc_mcu7t5v0__oai21_1
X_399_ _140_ state\[1\] _141_ VDD VDD VSS VSS gf180mcu_fd_sc_mcu7t5v0__nand2_2
X_468_ _165_ _190_ _013_ VDD VDD VSS VSS gf180mcu_fd_sc_mcu7t5v0__nand2_1
X_322_ _093_ _070_ _094_ VDD VDD VSS VSS gf180mcu_fd_sc_mcu7t5v0__or2_1
XFILLER_0_19_68 VDD VDD VSS VSS gf180mcu_fd_sc_mcu7t5v0__fill_2
XFILLER_0_19_24 VDD VDD VSS VSS gf180mcu_fd_sc_mcu7t5v0__fillcap_32
X_253_ result\[1\] _049_ _051_ net66 VDD VDD VSS VSS gf180mcu_fd_sc_mcu7t5v0__oai21_1
XFILLER_0_10_37 VDD VDD VSS VSS gf180mcu_fd_sc_mcu7t5v0__fill_1
X_236_ _027_ result\[10\] _037_ net25 VDD VDD VSS VSS gf180mcu_fd_sc_mcu7t5v0__oai21_1
X_305_ _058_ result\[3\] net32 _040_ _086_ VDD VDD VSS VSS gf180mcu_fd_sc_mcu7t5v0__oai211_1
XPHY_EDGE_ROW_7_Left_34 VDD VSS gf180mcu_fd_sc_mcu7t5v0__endcap
XTAP_TAPCELL_ROW_10_83 VDD VSS gf180mcu_fd_sc_mcu7t5v0__filltie
XTAP_TAPCELL_ROW_6_73 VDD VSS gf180mcu_fd_sc_mcu7t5v0__filltie
XTAP_TAPCELL_ROW_26_122 VDD VSS gf180mcu_fd_sc_mcu7t5v0__filltie
Xoutput49 net49 vref_z_n_o[4] VDD VDD VSS VSS gf180mcu_fd_sc_mcu7t5v0__clkbuf_3
Xoutput38 net38 vcm_o[4] VDD VDD VSS VSS gf180mcu_fd_sc_mcu7t5v0__clkbuf_4
Xoutput27 net27 en_comp VDD VDD VSS VSS gf180mcu_fd_sc_mcu7t5v0__buf_1
XTAP_TAPCELL_ROW_17_100 VDD VSS gf180mcu_fd_sc_mcu7t5v0__filltie
Xclkbuf_0_clk clk clknet_0_clk VDD VDD VSS VSS gf180mcu_fd_sc_mcu7t5v0__clkbuf_16
XPHY_EDGE_ROW_24_Right_24 VDD VSS gf180mcu_fd_sc_mcu7t5v0__endcap
XTAP_TAPCELL_ROW_23_114 VDD VSS gf180mcu_fd_sc_mcu7t5v0__filltie
XPHY_EDGE_ROW_15_Right_15 VDD VSS gf180mcu_fd_sc_mcu7t5v0__endcap
X_484_ _197_ _198_ net1 _200_ VDD VDD VSS VSS gf180mcu_fd_sc_mcu7t5v0__oai21_1
XTAP_TAPCELL_ROW_20_106 VDD VSS gf180mcu_fd_sc_mcu7t5v0__filltie
XPHY_EDGE_ROW_20_Left_47 VDD VSS gf180mcu_fd_sc_mcu7t5v0__endcap
X_398_ state\[0\] _140_ VDD VDD VSS VSS gf180mcu_fd_sc_mcu7t5v0__clkinv_2
XFILLER_0_4_46 VDD VDD VSS VSS gf180mcu_fd_sc_mcu7t5v0__fill_1
X_467_ counter\[5\] _184_ _190_ VDD VDD VSS VSS gf180mcu_fd_sc_mcu7t5v0__nand2_1
X_321_ result\[9\] _093_ VDD VDD VSS VSS gf180mcu_fd_sc_mcu7t5v0__clkinv_1
X_252_ _050_ _051_ VDD VDD VSS VSS gf180mcu_fd_sc_mcu7t5v0__clkbuf_3
X_519_ _012_ net90 clknet_2_2__leaf_clk counter\[4\] VDD VDD VSS VSS gf180mcu_fd_sc_mcu7t5v0__dffrnq_1
X_235_ _026_ _036_ _037_ VDD VDD VSS VSS gf180mcu_fd_sc_mcu7t5v0__nand2_1
X_304_ result\[4\] _085_ net48 VDD VDD VSS VSS gf180mcu_fd_sc_mcu7t5v0__nand2_1
XPHY_EDGE_ROW_23_Left_50 VDD VSS gf180mcu_fd_sc_mcu7t5v0__endcap
XFILLER_0_20_172 VDD VDD VSS VSS gf180mcu_fd_sc_mcu7t5v0__fill_2
XFILLER_0_16_37 VDD VDD VSS VSS gf180mcu_fd_sc_mcu7t5v0__fill_1
Xoutput28 net28 en_offset_cal_o VDD VDD VSS VSS gf180mcu_fd_sc_mcu7t5v0__clkbuf_4
Xoutput39 net39 vcm_o[5] VDD VDD VSS VSS gf180mcu_fd_sc_mcu7t5v0__clkbuf_4
XTAP_TAPCELL_ROW_26_123 VDD VSS gf180mcu_fd_sc_mcu7t5v0__filltie
XTAP_TAPCELL_ROW_23_115 VDD VSS gf180mcu_fd_sc_mcu7t5v0__filltie
X_483_ result\[7\] _129_ _199_ VDD VDD VSS VSS gf180mcu_fd_sc_mcu7t5v0__nand2_1
XTAP_TAPCELL_ROW_20_107 VDD VSS gf180mcu_fd_sc_mcu7t5v0__filltie
XTAP_TAPCELL_ROW_3_64 VDD VSS gf180mcu_fd_sc_mcu7t5v0__filltie
X_466_ _189_ _012_ VDD VDD VSS VSS gf180mcu_fd_sc_mcu7t5v0__clkinv_1
X_535_ _025_ net90 clknet_2_2__leaf_clk result\[1\] VDD VDD VSS VSS gf180mcu_fd_sc_mcu7t5v0__dffrnq_1
X_397_ _133_ _136_ _137_ _138_ _139_ VDD VDD VSS VSS gf180mcu_fd_sc_mcu7t5v0__nor4_2
Xclkbuf_2_0__f_clk clknet_0_clk clknet_2_0__leaf_clk VDD VDD VSS VSS gf180mcu_fd_sc_mcu7t5v0__clkbuf_16
X_251_ _038_ _045_ _050_ VDD VDD VSS VSS gf180mcu_fd_sc_mcu7t5v0__nand2_2
X_320_ net52 _092_ net85 VDD VDD VSS VSS gf180mcu_fd_sc_mcu7t5v0__nand2_1
XTAP_TAPCELL_ROW_0_54 VDD VSS gf180mcu_fd_sc_mcu7t5v0__filltie
X_449_ _178_ _006_ VDD VDD VSS VSS gf180mcu_fd_sc_mcu7t5v0__clkbuf_1
X_518_ _011_ net88 clknet_2_0__leaf_clk counter\[3\] VDD VDD VSS VSS gf180mcu_fd_sc_mcu7t5v0__dffrnq_1
X_234_ result\[4\] _036_ VDD VDD VSS VSS gf180mcu_fd_sc_mcu7t5v0__clkinv_1
X_303_ net11 _057_ _085_ VDD VDD VSS VSS gf180mcu_fd_sc_mcu7t5v0__nor2_1
XFILLER_0_21_129 VDD VDD VSS VSS gf180mcu_fd_sc_mcu7t5v0__fill_1
XFILLER_0_16_27 VDD VDD VSS VSS gf180mcu_fd_sc_mcu7t5v0__fill_2
Xoutput29 net29 en_vcm_sw_o VDD VDD VSS VSS gf180mcu_fd_sc_mcu7t5v0__clkbuf_4
XTAP_TAPCELL_ROW_26_124 VDD VSS gf180mcu_fd_sc_mcu7t5v0__filltie
XPHY_EDGE_ROW_5_Right_5 VDD VSS gf180mcu_fd_sc_mcu7t5v0__endcap
XTAP_TAPCELL_ROW_3_65 VDD VSS gf180mcu_fd_sc_mcu7t5v0__filltie
X_482_ _104_ counter\[8\] _175_ _198_ VDD VDD VSS VSS gf180mcu_fd_sc_mcu7t5v0__nor3_1
XFILLER_0_21_2 VDD VDD VSS VSS gf180mcu_fd_sc_mcu7t5v0__fill_1
XTAP_TAPCELL_ROW_20_108 VDD VSS gf180mcu_fd_sc_mcu7t5v0__filltie
XFILLER_0_0_140 VDD VDD VSS VSS gf180mcu_fd_sc_mcu7t5v0__fill_1
X_534_ _024_ net90 clknet_2_2__leaf_clk result\[6\] VDD VDD VSS VSS gf180mcu_fd_sc_mcu7t5v0__dffrnq_1
XFILLER_0_24_16 VDD VDD VSS VSS gf180mcu_fd_sc_mcu7t5v0__fillcap_4
X_465_ _027_ _184_ net20 _189_ VDD VDD VSS VSS gf180mcu_fd_sc_mcu7t5v0__aoi21_1
X_396_ _055_ counter\[2\] _026_ counter\[5\] _138_ VDD VDD VSS VSS gf180mcu_fd_sc_mcu7t5v0__nand4_2
XTAP_TAPCELL_ROW_0_55 VDD VSS gf180mcu_fd_sc_mcu7t5v0__filltie
X_250_ _048_ _049_ VDD VDD VSS VSS gf180mcu_fd_sc_mcu7t5v0__clkinv_1
X_448_ _174_ net1 _177_ _178_ VDD VDD VSS VSS gf180mcu_fd_sc_mcu7t5v0__mux2_2
X_517_ _010_ net88 clknet_2_0__leaf_clk counter\[2\] VDD VDD VSS VSS gf180mcu_fd_sc_mcu7t5v0__dffrnq_2
X_379_ counter\[6\] _128_ net39 VDD VDD VSS VSS gf180mcu_fd_sc_mcu7t5v0__nor2_1
X_233_ _027_ result\[9\] _035_ net24 VDD VDD VSS VSS gf180mcu_fd_sc_mcu7t5v0__oai21_1
X_302_ net47 _084_ net80 VDD VDD VSS VSS gf180mcu_fd_sc_mcu7t5v0__nand2_1
XFILLER_0_23_182 VDD VDD VSS VSS gf180mcu_fd_sc_mcu7t5v0__fill_2
XFILLER_0_11_72 VDD VDD VSS VSS gf180mcu_fd_sc_mcu7t5v0__fill_2
XFILLER_0_20_174 VDD VDD VSS VSS gf180mcu_fd_sc_mcu7t5v0__fill_1
XTAP_TAPCELL_ROW_26_125 VDD VSS gf180mcu_fd_sc_mcu7t5v0__filltie
XTAP_TAPCELL_ROW_16_96 VDD VSS gf180mcu_fd_sc_mcu7t5v0__filltie
XPHY_EDGE_ROW_20_Right_20 VDD VSS gf180mcu_fd_sc_mcu7t5v0__endcap
X_481_ _104_ _147_ _196_ _197_ VDD VDD VSS VSS gf180mcu_fd_sc_mcu7t5v0__and3_1
XPHY_EDGE_ROW_11_Right_11 VDD VSS gf180mcu_fd_sc_mcu7t5v0__endcap
X_533_ _023_ net91 clknet_2_3__leaf_clk single_ended_reg VDD VDD VSS VSS gf180mcu_fd_sc_mcu7t5v0__dffrnq_2
X_464_ _188_ _011_ VDD VDD VSS VSS gf180mcu_fd_sc_mcu7t5v0__clkinv_1
X_395_ counter\[7\] counter\[6\] counter\[1\] _137_ VDD VDD VSS VSS gf180mcu_fd_sc_mcu7t5v0__nand3_1
X_516_ _009_ net88 clknet_2_0__leaf_clk counter\[1\] VDD VDD VSS VSS gf180mcu_fd_sc_mcu7t5v0__dffrnq_1
XTAP_TAPCELL_ROW_0_56 VDD VSS gf180mcu_fd_sc_mcu7t5v0__filltie
X_447_ _038_ counter\[8\] _175_ _176_ _177_ VDD VDD VSS VSS gf180mcu_fd_sc_mcu7t5v0__oai31_2
X_378_ counter\[5\] _128_ net38 VDD VDD VSS VSS gf180mcu_fd_sc_mcu7t5v0__nor2_1
X_232_ _026_ _034_ _035_ VDD VDD VSS VSS gf180mcu_fd_sc_mcu7t5v0__nand2_1
X_301_ _083_ result\[2\] net32 _040_ _084_ VDD VDD VSS VSS gf180mcu_fd_sc_mcu7t5v0__oai211_1
XFILLER_0_16_29 VDD VDD VSS VSS gf180mcu_fd_sc_mcu7t5v0__fill_1
XPHY_EDGE_ROW_11_Left_38 VDD VSS gf180mcu_fd_sc_mcu7t5v0__endcap
XTAP_TAPCELL_ROW_16_97 VDD VSS gf180mcu_fd_sc_mcu7t5v0__filltie
XFILLER_0_17_72 VDD VDD VSS VSS gf180mcu_fd_sc_mcu7t5v0__fill_1
X_480_ _067_ counter\[7\] _196_ VDD VDD VSS VSS gf180mcu_fd_sc_mcu7t5v0__nor2_1
XPHY_EDGE_ROW_14_Left_41 VDD VSS gf180mcu_fd_sc_mcu7t5v0__endcap
X_532_ _022_ net90 clknet_2_2__leaf_clk result\[2\] VDD VDD VSS VSS gf180mcu_fd_sc_mcu7t5v0__dffrnq_1
X_463_ _027_ _148_ _184_ _055_ _188_ VDD VDD VSS VSS gf180mcu_fd_sc_mcu7t5v0__aoi22_1
X_394_ _134_ _135_ _136_ VDD VDD VSS VSS gf180mcu_fd_sc_mcu7t5v0__nand2_1
XFILLER_0_14_51 VDD VDD VSS VSS gf180mcu_fd_sc_mcu7t5v0__fill_2
X_515_ _008_ net88 clknet_2_0__leaf_clk counter\[0\] VDD VDD VSS VSS gf180mcu_fd_sc_mcu7t5v0__dffrnq_1
XTAP_TAPCELL_ROW_0_57 VDD VSS gf180mcu_fd_sc_mcu7t5v0__filltie
Xfanout88 net91 net88 VDD VDD VSS VSS gf180mcu_fd_sc_mcu7t5v0__buf_3
X_377_ _027_ _128_ net37 VDD VDD VSS VSS gf180mcu_fd_sc_mcu7t5v0__nor2_1
X_446_ _038_ counter\[10\] _069_ _147_ _176_ VDD VDD VSS VSS gf180mcu_fd_sc_mcu7t5v0__nand4_1
XFILLER_0_25_72 VDD VDD VSS VSS gf180mcu_fd_sc_mcu7t5v0__fill_1
XFILLER_0_24_107 VDD VDD VSS VSS gf180mcu_fd_sc_mcu7t5v0__fillcap_4
X_300_ counter\[4\] _083_ VDD VDD VSS VSS gf180mcu_fd_sc_mcu7t5v0__clkinv_1
X_231_ result\[3\] _034_ VDD VDD VSS VSS gf180mcu_fd_sc_mcu7t5v0__clkinv_1